* NGSPICE file created from Top.ext - technology: sky130A

.subckt Top_PEX VDD VSS VREF IL VH IBIAS1 VL IBIAS2 ENABLE BIAS3 OUT BIAS4 SAWTOOTH
X0 VDD a_7566_10753# IL VDD sky130_fd_pr__pfet_01v8 ad=1.64874e+15p pd=1.0707e+10u as=1.21275e+15p ps=7.5117e+09u w=1.5e+07u l=150000u
X1 a_71263_34662# a_70433_34133# VSS VSS sky130_fd_pr__nfet_01v8 ad=1.218e+11p pd=1.42e+06u as=3.98891e+14p ps=2.7043e+09u w=420000u l=150000u
X2 VSS a_71263_34662# a_72241_31805# VSS sky130_fd_pr__nfet_01v8 ad=0p pd=0u as=2.436e+11p ps=2.84e+06u w=420000u l=150000u
X3 VDD a_7566_10753# IL VDD sky130_fd_pr__pfet_01v8 ad=0p pd=0u as=0p ps=0u w=1.5e+07u l=150000u
X4 a_10308_7770# a_8208_7760# a_9888_7770# VSS sky130_fd_pr__nfet_01v8 ad=2.494e+11p pd=2.88e+06u as=2.494e+11p ps=2.88e+06u w=430000u l=150000u
X5 IL a_7566_10753# VDD VDD sky130_fd_pr__pfet_01v8 ad=0p pd=0u as=0p ps=0u w=1.5e+07u l=150000u
X6 IL a_7566_10753# VDD VDD sky130_fd_pr__pfet_01v8 ad=0p pd=0u as=0p ps=0u w=1.5e+07u l=150000u
X7 VSS a_11368_10743# IL VSS sky130_fd_pr__nfet_01v8 ad=0p pd=0u as=2.64e+14p ps=1.6528e+09u w=1e+07u l=150000u
X8 IL a_7566_10753# VDD VDD sky130_fd_pr__pfet_01v8 ad=0p pd=0u as=0p ps=0u w=1.5e+07u l=150000u
X9 VDD IBIAS1 a_16885_14913# VDD sky130_fd_pr__pfet_01v8 ad=0p pd=0u as=6.96e+12p ps=6.54e+07u w=800000u l=900000u
X10 IL a_11368_10743# VSS VSS sky130_fd_pr__nfet_01v8 ad=0p pd=0u as=0p ps=0u w=1e+07u l=150000u
X11 VDD a_11080_22588# a_11368_10743# VDD sky130_fd_pr__pfet_01v8 ad=0p pd=0u as=3.48e+13p ps=2.458e+08u w=1.2e+07u l=150000u
X12 VDD a_7566_10753# IL VDD sky130_fd_pr__pfet_01v8 ad=0p pd=0u as=0p ps=0u w=1.5e+07u l=150000u
X13 IL a_7566_10753# VDD VDD sky130_fd_pr__pfet_01v8 ad=0p pd=0u as=0p ps=0u w=1.5e+07u l=150000u
X14 BIAS3 VH a_56243_36303# VSS sky130_fd_pr__nfet_01v8 ad=2.9e+12p pd=2.116e+07u as=1.45e+12p ps=1.058e+07u w=5e+06u l=1e+06u
X15 VDD a_7566_10753# IL VDD sky130_fd_pr__pfet_01v8 ad=0p pd=0u as=0p ps=0u w=1.5e+07u l=150000u
X16 a_68185_14789# a_68093_13516# VDD VDD sky130_fd_pr__pfet_01v8 ad=3.48e+11p pd=2.98e+06u as=0p ps=0u w=1.2e+06u l=150000u
X17 a_18065_14978# a_17191_18793# a_18069_15548# VSS sky130_fd_pr__nfet_01v8 ad=1.392e+12p pd=1.308e+07u as=6.96e+11p ps=6.54e+06u w=800000u l=900000u
X18 VDD a_7566_10753# IL VDD sky130_fd_pr__pfet_01v8 ad=0p pd=0u as=0p ps=0u w=1.5e+07u l=150000u
X19 IL a_11368_10743# VSS VSS sky130_fd_pr__nfet_01v8 ad=0p pd=0u as=0p ps=0u w=1e+07u l=150000u
X20 a_18065_14978# a_18069_15548# VSS VSS sky130_fd_pr__nfet_01v8 ad=0p pd=0u as=0p ps=0u w=800000u l=900000u
X21 a_82606_36983# a_82288_8250# OUT VDD sky130_fd_pr__pfet_01v8 ad=1.077e+13p pd=7.318e+07u as=9.9e+12p ps=6.66e+07u w=3e+06u l=150000u
X22 OUT a_82654_36220# a_82702_36308# VSS sky130_fd_pr__nfet_01v8 ad=3.59e+12p pd=2.918e+07u as=3.3e+12p ps=2.66e+07u w=1e+06u l=150000u
X23 VDD a_7566_10753# IL VDD sky130_fd_pr__pfet_01v8 ad=0p pd=0u as=0p ps=0u w=1.5e+07u l=150000u
X24 a_70383_18394# a_67084_14777# VDD VDD sky130_fd_pr__pfet_01v8 ad=1.392e+12p pd=1.424e+07u as=0p ps=0u w=600000u l=150000u
X25 IL a_11368_10743# VSS VSS sky130_fd_pr__nfet_01v8 ad=0p pd=0u as=0p ps=0u w=1e+07u l=150000u
X26 VSS a_11368_10743# IL VSS sky130_fd_pr__nfet_01v8 ad=0p pd=0u as=0p ps=0u w=1e+07u l=150000u
X27 VDD a_7278_22598# a_7566_10753# VDD sky130_fd_pr__pfet_01v8 ad=0p pd=0u as=3.48e+13p ps=2.458e+08u w=1.2e+07u l=150000u
X28 VSS a_17203_21541# a_16326_14920# VSS sky130_fd_pr__nfet_01v8 ad=0p pd=0u as=5.8e+13p ps=4.1218e+08u w=8e+06u l=900000u
X29 VDD ENABLE a_55365_29869# VDD sky130_fd_pr__pfet_01v8 ad=0p pd=0u as=6.96e+11p ps=7.12e+06u w=600000u l=150000u
X30 IL a_7566_10753# VDD VDD sky130_fd_pr__pfet_01v8 ad=0p pd=0u as=0p ps=0u w=1.5e+07u l=150000u
X31 OUT a_82288_8250# a_82606_36983# VDD sky130_fd_pr__pfet_01v8 ad=0p pd=0u as=0p ps=0u w=3e+06u l=150000u
X32 a_82702_36308# a_82654_36220# OUT VSS sky130_fd_pr__nfet_01v8 ad=0p pd=0u as=0p ps=0u w=1e+06u l=150000u
X33 a_11368_10743# a_11080_22588# VSS VSS sky130_fd_pr__nfet_01v8 ad=1.16e+13p pd=8.58e+07u as=0p ps=0u w=4e+06u l=150000u
X34 VDD a_7566_10753# IL VDD sky130_fd_pr__pfet_01v8 ad=0p pd=0u as=0p ps=0u w=1.5e+07u l=150000u
X35 a_85910_23842# a_73171_11284# VSS VSS sky130_fd_pr__nfet_01v8 ad=1.218e+11p pd=1.42e+06u as=0p ps=0u w=420000u l=150000u
X36 VDD a_7566_10753# IL VDD sky130_fd_pr__pfet_01v8 ad=0p pd=0u as=0p ps=0u w=1.5e+07u l=150000u
X37 a_73881_31122# a_73071_32334# VDD VDD sky130_fd_pr__pfet_01v8 ad=1.392e+12p pd=1.424e+07u as=0p ps=0u w=600000u l=150000u
X38 a_73811_14325# a_73007_13942# a_73821_14854# VDD sky130_fd_pr__pfet_01v8 ad=6.96e+11p pd=7.12e+06u as=1.392e+12p ps=1.424e+07u w=600000u l=150000u
X39 VDD a_7566_10753# IL VDD sky130_fd_pr__pfet_01v8 ad=0p pd=0u as=0p ps=0u w=1.5e+07u l=150000u
X40 VDD a_7566_10753# IL VDD sky130_fd_pr__pfet_01v8 ad=0p pd=0u as=0p ps=0u w=1.5e+07u l=150000u
X41 VSS a_58085_30619# a_57725_29899# VSS sky130_fd_pr__nfet_01v8 ad=0p pd=0u as=4.872e+11p ps=5.68e+06u w=420000u l=150000u
X42 a_69386_13417# a_69018_11991# VDD VDD sky130_fd_pr__pfet_01v8 ad=3.48e+11p pd=2.98e+06u as=0p ps=0u w=1.2e+06u l=150000u
X43 a_67446_13401# a_67084_14777# VDD VDD sky130_fd_pr__pfet_01v8 ad=3.48e+11p pd=2.98e+06u as=0p ps=0u w=1.2e+06u l=150000u
R0 a_82702_36308# VSS sky130_fd_pr__res_generic_m1 w=140000u l=1.121e+07u
X44 a_73007_13942# a_72177_14863# VDD VDD sky130_fd_pr__pfet_01v8 ad=3.48e+11p pd=3.56e+06u as=0p ps=0u w=600000u l=150000u
X45 a_66305_31041# a_56275_30688# VSS VSS sky130_fd_pr__nfet_01v8 ad=1.218e+11p pd=1.42e+06u as=0p ps=0u w=420000u l=150000u
X46 a_26193_8614# a_15089_10332# VSS sky130_fd_pr__res_xhigh_po_0p35 l=1.819e+07u
X47 VDD a_82000_20095# a_82288_8250# VDD sky130_fd_pr__pfet_01v8 ad=0p pd=0u as=3.48e+13p ps=2.458e+08u w=1.2e+07u l=150000u
X48 a_72187_13230# a_71183_13646# VDD VDD sky130_fd_pr__pfet_01v8 ad=1.392e+12p pd=1.424e+07u as=0p ps=0u w=600000u l=150000u
X49 a_16326_14920# a_16146_14832# a_16088_14920# VSS sky130_fd_pr__nfet_01v8 ad=0p pd=0u as=2.32e+13p ps=1.6464e+08u w=1e+07u l=900000u
X50 IL a_7566_10753# VDD VDD sky130_fd_pr__pfet_01v8 ad=0p pd=0u as=0p ps=0u w=1.5e+07u l=150000u
X51 IL a_7566_10753# VDD VDD sky130_fd_pr__pfet_01v8 ad=0p pd=0u as=0p ps=0u w=1.5e+07u l=150000u
X52 a_16885_14913# IBIAS1 VDD VDD sky130_fd_pr__pfet_01v8 ad=0p pd=0u as=0p ps=0u w=800000u l=900000u
X53 VSS a_11368_10743# IL VSS sky130_fd_pr__nfet_01v8 ad=0p pd=0u as=0p ps=0u w=1e+07u l=150000u
X54 IL a_11368_10743# VSS VSS sky130_fd_pr__nfet_01v8 ad=0p pd=0u as=0p ps=0u w=1e+07u l=150000u
X55 VDD a_7566_10753# IL VDD sky130_fd_pr__pfet_01v8 ad=0p pd=0u as=0p ps=0u w=1.5e+07u l=150000u
X56 VDD a_7566_10753# IL VDD sky130_fd_pr__pfet_01v8 ad=0p pd=0u as=0p ps=0u w=1.5e+07u l=150000u
X57 a_70369_17191# a_66125_10752# a_70379_15558# VDD sky130_fd_pr__pfet_01v8 ad=6.96e+11p pd=7.12e+06u as=1.392e+12p ps=1.424e+07u w=600000u l=150000u
X58 a_73071_32334# a_72241_31805# VSS VSS sky130_fd_pr__nfet_01v8 ad=1.218e+11p pd=1.42e+06u as=0p ps=0u w=420000u l=150000u
X59 a_15089_10332# a_18127_16042# a_16088_14920# VDD sky130_fd_pr__pfet_01v8 ad=3.48e+12p pd=3.27e+07u as=6.96e+12p ps=6.54e+07u w=800000u l=900000u
X60 VDD a_7566_10753# IL VDD sky130_fd_pr__pfet_01v8 ad=0p pd=0u as=0p ps=0u w=1.5e+07u l=150000u
X61 a_67066_26921# VSS sky130_fd_pr__cap_mim_m3_2 l=1.4e+07u w=1.4e+07u
X62 a_73821_14854# a_73011_16066# VDD VDD sky130_fd_pr__pfet_01v8 ad=0p pd=0u as=0p ps=0u w=600000u l=150000u
X63 VDD a_11080_22588# a_11368_10743# VDD sky130_fd_pr__pfet_01v8 ad=0p pd=0u as=0p ps=0u w=1.2e+07u l=150000u
X64 a_67056_12029# a_66217_12025# VSS VSS sky130_fd_pr__nfet_01v8 ad=1.218e+11p pd=1.42e+06u as=0p ps=0u w=420000u l=150000u
X65 a_18069_15548# a_18127_16042# a_16885_14913# VDD sky130_fd_pr__pfet_01v8 ad=3.48e+12p pd=3.27e+07u as=0p ps=0u w=800000u l=900000u
X66 IL a_7566_10753# VDD VDD sky130_fd_pr__pfet_01v8 ad=0p pd=0u as=0p ps=0u w=1.5e+07u l=150000u
X67 IL a_7566_10753# VDD VDD sky130_fd_pr__pfet_01v8 ad=0p pd=0u as=0p ps=0u w=1.5e+07u l=150000u
X68 VDD a_66225_26923# a_66185_27020# VDD sky130_fd_pr__pfet_01v8 ad=0p pd=0u as=3.48e+11p ps=2.98e+06u w=1.2e+06u l=150000u
X69 a_67084_14777# a_66245_14773# VDD VDD sky130_fd_pr__pfet_01v8 ad=3.48e+11p pd=2.98e+06u as=0p ps=0u w=1.2e+06u l=150000u
X70 a_82702_36308# a_82654_36220# OUT VSS sky130_fd_pr__nfet_01v8 ad=0p pd=0u as=0p ps=0u w=1e+06u l=150000u
X71 VDD a_7566_10753# IL VDD sky130_fd_pr__pfet_01v8 ad=0p pd=0u as=0p ps=0u w=1.5e+07u l=150000u
X72 VDD a_56185_37833# a_58223_37543# VDD sky130_fd_pr__pfet_01v8 ad=0p pd=0u as=7.25e+11p ps=5.58e+06u w=2.5e+06u l=1e+06u
X73 IL a_11368_10743# VSS VSS sky130_fd_pr__nfet_01v8 ad=0p pd=0u as=0p ps=0u w=1e+07u l=150000u
X74 a_16088_14920# IBIAS1 VDD VDD sky130_fd_pr__pfet_01v8 ad=0p pd=0u as=0p ps=0u w=800000u l=900000u
X75 IL a_11368_10743# VSS VSS sky130_fd_pr__nfet_01v8 ad=0p pd=0u as=0p ps=0u w=1e+07u l=150000u
X76 a_9468_8289# a_8208_7760# a_9048_8289# VDD sky130_fd_pr__pfet_01v8 ad=2.494e+11p pd=2.88e+06u as=2.494e+11p ps=2.88e+06u w=430000u l=150000u
X77 IL a_7566_10753# VDD VDD sky130_fd_pr__pfet_01v8 ad=0p pd=0u as=0p ps=0u w=1.5e+07u l=150000u
X78 a_70433_34133# a_66213_29768# VSS VSS sky130_fd_pr__nfet_01v8 ad=2.436e+11p pd=2.84e+06u as=0p ps=0u w=420000u l=150000u
D0 VSS a_81183_36165# sky130_fd_pr__diode_pw2nd_05v5 pj=1.8e+06u area=2.025e+11p
X79 VSS a_11368_10743# IL VSS sky130_fd_pr__nfet_01v8 ad=0p pd=0u as=0p ps=0u w=1e+07u l=150000u
X80 VSS a_17203_21541# a_16326_14920# VSS sky130_fd_pr__nfet_01v8 ad=0p pd=0u as=0p ps=0u w=8e+06u l=900000u
X81 a_7470_7022# a_14165_10612# VSS VSS sky130_fd_pr__nfet_01v8_lvt ad=2.9e+11p pd=2.58e+06u as=0p ps=0u w=1e+06u l=500000u
X82 VSS a_11058_26159# a_11018_26256# VSS sky130_fd_pr__nfet_01v8 ad=0p pd=0u as=1.218e+11p ps=1.42e+06u w=420000u l=150000u
X83 IL a_11368_10743# VSS VSS sky130_fd_pr__nfet_01v8 ad=0p pd=0u as=0p ps=0u w=1e+07u l=150000u
X84 a_10308_8289# a_8208_7760# a_9888_8289# VDD sky130_fd_pr__pfet_01v8 ad=2.494e+11p pd=2.88e+06u as=2.494e+11p ps=2.88e+06u w=430000u l=150000u
X85 a_15089_10332# a_18127_16042# a_16088_14920# VDD sky130_fd_pr__pfet_01v8 ad=0p pd=0u as=0p ps=0u w=800000u l=900000u
X86 IL a_7566_10753# VDD VDD sky130_fd_pr__pfet_01v8 ad=0p pd=0u as=0p ps=0u w=1.5e+07u l=150000u
X87 IL a_7566_10753# VDD VDD sky130_fd_pr__pfet_01v8 ad=0p pd=0u as=0p ps=0u w=1.5e+07u l=150000u
X88 VDD IBIAS1 a_16885_14913# VDD sky130_fd_pr__pfet_01v8 ad=0p pd=0u as=0p ps=0u w=800000u l=900000u
X89 a_18069_15548# a_18127_16042# a_16885_14913# VDD sky130_fd_pr__pfet_01v8 ad=0p pd=0u as=0p ps=0u w=800000u l=900000u
X90 VSS a_11368_10743# IL VSS sky130_fd_pr__nfet_01v8 ad=0p pd=0u as=0p ps=0u w=1e+07u l=150000u
X91 VDD a_68127_10617# a_68087_10714# VDD sky130_fd_pr__pfet_01v8 ad=0p pd=0u as=3.48e+11p ps=2.98e+06u w=1.2e+06u l=150000u
X92 VDD a_7566_10753# IL VDD sky130_fd_pr__pfet_01v8 ad=0p pd=0u as=0p ps=0u w=1.5e+07u l=150000u
X93 IL a_7566_10753# VDD VDD sky130_fd_pr__pfet_01v8 ad=0p pd=0u as=0p ps=0u w=1.5e+07u l=150000u
X94 a_70363_13646# a_68127_10617# VDD VDD sky130_fd_pr__pfet_01v8 ad=1.392e+12p pd=1.424e+07u as=0p ps=0u w=600000u l=150000u
X95 VDD a_7566_10753# IL VDD sky130_fd_pr__pfet_01v8 ad=0p pd=0u as=0p ps=0u w=1.5e+07u l=150000u
X96 VDD a_11080_22588# a_11368_10743# VDD sky130_fd_pr__pfet_01v8 ad=0p pd=0u as=0p ps=0u w=1.2e+07u l=150000u
X97 a_24717_8618# OUT VSS sky130_fd_pr__res_xhigh_po_0p35 l=1.47e+06u
X98 VDD a_66125_10752# a_68968_10615# VDD sky130_fd_pr__pfet_01v8 ad=0p pd=0u as=3.48e+11p ps=2.98e+06u w=1.2e+06u l=150000u
X99 IL a_11368_10743# VSS VSS sky130_fd_pr__nfet_01v8 ad=0p pd=0u as=0p ps=0u w=1e+07u l=150000u
X100 a_16088_14920# IBIAS1 VDD VDD sky130_fd_pr__pfet_01v8 ad=0p pd=0u as=0p ps=0u w=800000u l=900000u
X101 a_16088_14920# a_18127_16042# a_15089_10332# VDD sky130_fd_pr__pfet_01v8 ad=0p pd=0u as=0p ps=0u w=800000u l=900000u
X102 a_16088_14920# a_18127_16042# a_15089_10332# VDD sky130_fd_pr__pfet_01v8 ad=0p pd=0u as=0p ps=0u w=800000u l=900000u
X103 VDD a_7566_10753# IL VDD sky130_fd_pr__pfet_01v8 ad=0p pd=0u as=0p ps=0u w=1.5e+07u l=150000u
X104 a_70443_34662# a_67144_31045# VDD VDD sky130_fd_pr__pfet_01v8 ad=1.392e+12p pd=1.424e+07u as=0p ps=0u w=600000u l=150000u
X105 IL a_7566_10753# VDD VDD sky130_fd_pr__pfet_01v8 ad=0p pd=0u as=0p ps=0u w=1.5e+07u l=150000u
X106 IL a_7566_10753# VDD VDD sky130_fd_pr__pfet_01v8 ad=0p pd=0u as=0p ps=0u w=1.5e+07u l=150000u
X107 IL a_11368_10743# VSS VSS sky130_fd_pr__nfet_01v8 ad=0p pd=0u as=0p ps=0u w=1e+07u l=150000u
X108 a_82288_8250# a_82000_20095# VSS VSS sky130_fd_pr__nfet_01v8 ad=1.16e+13p pd=8.58e+07u as=0p ps=0u w=4e+06u l=150000u
X109 OUT a_82654_36220# a_82702_36308# VSS sky130_fd_pr__nfet_01v8 ad=0p pd=0u as=0p ps=0u w=1e+06u l=150000u
X110 a_16885_14913# IBIAS1 VDD VDD sky130_fd_pr__pfet_01v8 ad=0p pd=0u as=0p ps=0u w=800000u l=900000u
X111 a_16088_14920# IBIAS1 VDD VDD sky130_fd_pr__pfet_01v8 ad=0p pd=0u as=0p ps=0u w=800000u l=900000u
X112 a_16088_14920# IBIAS1 VDD VDD sky130_fd_pr__pfet_01v8 ad=0p pd=0u as=0p ps=0u w=800000u l=900000u
X113 a_22716_5673# a_31428_5355# VSS sky130_fd_pr__res_xhigh_po_0p35 l=4.14e+07u
X114 a_66217_12025# a_66153_13500# VDD VDD sky130_fd_pr__pfet_01v8 ad=3.48e+11p pd=2.98e+06u as=0p ps=0u w=1.2e+06u l=150000u
X115 a_16885_14913# a_18127_16042# a_18069_15548# VDD sky130_fd_pr__pfet_01v8 ad=0p pd=0u as=0p ps=0u w=800000u l=900000u
X116 a_16885_14913# VREF a_16326_14920# VSS sky130_fd_pr__nfet_01v8 ad=2.32e+13p pd=1.6464e+08u as=0p ps=0u w=1e+07u l=900000u
X117 IL a_7566_10753# VDD VDD sky130_fd_pr__pfet_01v8 ad=0p pd=0u as=0p ps=0u w=1.5e+07u l=150000u
X118 a_70413_29385# a_69446_29685# a_70423_29914# VDD sky130_fd_pr__pfet_01v8 ad=6.96e+11p pd=7.12e+06u as=1.392e+12p ps=1.424e+07u w=600000u l=150000u
X119 VDD a_7566_10753# IL VDD sky130_fd_pr__pfet_01v8 ad=0p pd=0u as=0p ps=0u w=1.5e+07u l=150000u
X120 VSS a_66185_27020# a_69028_26883# VSS sky130_fd_pr__nfet_01v8 ad=0p pd=0u as=1.218e+11p ps=1.42e+06u w=420000u l=150000u
X121 a_14961_11760# a_13995_11762# VDD VDD sky130_fd_pr__pfet_01v8_lvt ad=1.74e+12p pd=1.316e+07u as=0p ps=0u w=3e+06u l=500000u
X122 VSS a_18069_15548# a_18065_14978# VSS sky130_fd_pr__nfet_01v8 ad=0p pd=0u as=0p ps=0u w=800000u l=900000u
X123 VDD a_7566_10753# IL VDD sky130_fd_pr__pfet_01v8 ad=0p pd=0u as=0p ps=0u w=1.5e+07u l=150000u
X124 IL a_7566_10753# VDD VDD sky130_fd_pr__pfet_01v8 ad=0p pd=0u as=0p ps=0u w=1.5e+07u l=150000u
X125 a_69446_29685# a_69078_28259# VDD VDD sky130_fd_pr__pfet_01v8 ad=3.48e+11p pd=2.98e+06u as=0p ps=0u w=1.2e+06u l=150000u
X126 a_72411_27552# a_56275_30688# VDD VDD sky130_fd_pr__pfet_01v8 ad=1.392e+12p pd=1.424e+07u as=0p ps=0u w=600000u l=150000u
X127 a_15089_10332# a_18127_16042# a_16088_14920# VDD sky130_fd_pr__pfet_01v8 ad=0p pd=0u as=0p ps=0u w=800000u l=900000u
X128 VDD IBIAS1 a_16088_14920# VDD sky130_fd_pr__pfet_01v8 ad=0p pd=0u as=0p ps=0u w=800000u l=900000u
X129 IL a_7566_10753# VDD VDD sky130_fd_pr__pfet_01v8 ad=0p pd=0u as=0p ps=0u w=1.5e+07u l=150000u
X130 VDD a_7566_10753# IL VDD sky130_fd_pr__pfet_01v8 ad=0p pd=0u as=0p ps=0u w=1.5e+07u l=150000u
X131 IL a_11368_10743# VSS VSS sky130_fd_pr__nfet_01v8 ad=0p pd=0u as=0p ps=0u w=1e+07u l=150000u
X132 a_85932_20271# a_85870_23939# VSS VSS sky130_fd_pr__nfet_01v8 ad=1.16e+12p pd=8.58e+06u as=0p ps=0u w=4e+06u l=150000u
X133 a_72241_31805# a_71259_32538# VSS VSS sky130_fd_pr__nfet_01v8 ad=0p pd=0u as=0p ps=0u w=420000u l=150000u
X134 IL a_7566_10753# VDD VDD sky130_fd_pr__pfet_01v8 ad=0p pd=0u as=0p ps=0u w=1.5e+07u l=150000u
X135 VDD a_7566_10753# IL VDD sky130_fd_pr__pfet_01v8 ad=0p pd=0u as=0p ps=0u w=1.5e+07u l=150000u
X136 IL a_7566_10753# VDD VDD sky130_fd_pr__pfet_01v8 ad=0p pd=0u as=0p ps=0u w=1.5e+07u l=150000u
X137 IL a_7566_10753# VDD VDD sky130_fd_pr__pfet_01v8 ad=0p pd=0u as=0p ps=0u w=1.5e+07u l=150000u
X138 VSS a_66225_26923# a_66185_27020# VSS sky130_fd_pr__nfet_01v8 ad=0p pd=0u as=1.218e+11p ps=1.42e+06u w=420000u l=150000u
X139 a_13937_11859# a_13937_11859# VSS VSS sky130_fd_pr__nfet_01v8_lvt ad=2.9e+11p pd=2.58e+06u as=0p ps=0u w=1e+06u l=1e+06u
X140 a_73881_31122# a_73071_32334# VDD VDD sky130_fd_pr__pfet_01v8 ad=0p pd=0u as=0p ps=0u w=600000u l=150000u
X141 a_70409_28711# a_69506_31063# a_70419_27078# VDD sky130_fd_pr__pfet_01v8 ad=6.96e+11p pd=7.12e+06u as=1.392e+12p ps=1.424e+07u w=600000u l=150000u
X142 a_16088_14920# IBIAS1 VDD VDD sky130_fd_pr__pfet_01v8 ad=0p pd=0u as=0p ps=0u w=800000u l=900000u
X143 a_16088_14920# a_18127_16042# a_15089_10332# VDD sky130_fd_pr__pfet_01v8 ad=0p pd=0u as=0p ps=0u w=800000u l=900000u
X144 IL a_7566_10753# VDD VDD sky130_fd_pr__pfet_01v8 ad=0p pd=0u as=0p ps=0u w=1.5e+07u l=150000u
X145 VDD a_7566_10753# IL VDD sky130_fd_pr__pfet_01v8 ad=0p pd=0u as=0p ps=0u w=1.5e+07u l=150000u
X146 a_73231_27552# a_72401_27023# VDD VDD sky130_fd_pr__pfet_01v8 ad=3.48e+11p pd=3.56e+06u as=0p ps=0u w=600000u l=150000u
X147 VSS a_11368_10743# IL VSS sky130_fd_pr__nfet_01v8 ad=0p pd=0u as=0p ps=0u w=1e+07u l=150000u
X148 IL a_11368_10743# VSS VSS sky130_fd_pr__nfet_01v8 ad=0p pd=0u as=0p ps=0u w=1e+07u l=150000u
X149 IL a_7566_10753# VDD VDD sky130_fd_pr__pfet_01v8 ad=0p pd=0u as=0p ps=0u w=1.5e+07u l=150000u
X150 IL a_7566_10753# VDD VDD sky130_fd_pr__pfet_01v8 ad=0p pd=0u as=0p ps=0u w=1.5e+07u l=150000u
X151 VDD a_7566_10753# IL VDD sky130_fd_pr__pfet_01v8 ad=0p pd=0u as=0p ps=0u w=1.5e+07u l=150000u
X152 a_67116_28297# a_66277_28293# VSS VSS sky130_fd_pr__nfet_01v8 ad=1.218e+11p pd=1.42e+06u as=0p ps=0u w=420000u l=150000u
X153 a_16885_14913# IBIAS1 VDD VDD sky130_fd_pr__pfet_01v8 ad=0p pd=0u as=0p ps=0u w=800000u l=900000u
X154 a_16885_14913# a_18127_16042# a_18069_15548# VDD sky130_fd_pr__pfet_01v8 ad=0p pd=0u as=0p ps=0u w=800000u l=900000u
X155 a_57207_36187# OUT BIAS3 VSS sky130_fd_pr__nfet_01v8 ad=1.45e+12p pd=1.058e+07u as=0p ps=0u w=5e+06u l=1e+06u
X156 a_70433_34133# a_66213_29768# a_70443_34662# VDD sky130_fd_pr__pfet_01v8 ad=6.96e+11p pd=7.12e+06u as=0p ps=0u w=600000u l=150000u
X157 a_11978_7770# a_10728_7770# a_11558_7770# VSS sky130_fd_pr__nfet_01v8 ad=2.494e+11p pd=2.88e+06u as=2.494e+11p ps=2.88e+06u w=430000u l=150000u
X158 a_72191_16066# a_71203_18394# VDD VDD sky130_fd_pr__pfet_01v8 ad=1.392e+12p pd=1.424e+07u as=0p ps=0u w=600000u l=150000u
X159 IL a_7566_10753# VDD VDD sky130_fd_pr__pfet_01v8 ad=0p pd=0u as=0p ps=0u w=1.5e+07u l=150000u
X160 IL a_7566_10753# VDD VDD sky130_fd_pr__pfet_01v8 ad=0p pd=0u as=0p ps=0u w=1.5e+07u l=150000u
X161 VDD a_7566_10753# IL VDD sky130_fd_pr__pfet_01v8 ad=0p pd=0u as=0p ps=0u w=1.5e+07u l=150000u
X162 IL a_7566_10753# VDD VDD sky130_fd_pr__pfet_01v8 ad=0p pd=0u as=0p ps=0u w=1.5e+07u l=150000u
X163 a_9494_5830# a_7812_5796# a_9074_5830# VSS sky130_fd_pr__nfet_01v8 ad=2.494e+11p pd=2.88e+06u as=2.494e+11p ps=2.88e+06u w=430000u l=150000u
X164 VDD a_85932_20271# a_82654_36220# VDD sky130_fd_pr__pfet_01v8 ad=0p pd=0u as=3.48e+13p ps=2.458e+08u w=1.2e+07u l=150000u
X165 IL a_11368_10743# VSS VSS sky130_fd_pr__nfet_01v8 ad=0p pd=0u as=0p ps=0u w=1e+07u l=150000u
X166 IL a_7566_10753# VDD VDD sky130_fd_pr__pfet_01v8 ad=0p pd=0u as=0p ps=0u w=1.5e+07u l=150000u
X167 VDD a_7566_10753# IL VDD sky130_fd_pr__pfet_01v8 ad=0p pd=0u as=0p ps=0u w=1.5e+07u l=150000u
X168 VSS a_73071_32334# a_73871_30593# VSS sky130_fd_pr__nfet_01v8 ad=0p pd=0u as=2.436e+11p ps=2.84e+06u w=420000u l=150000u
X169 a_15089_10332# a_18127_16042# a_16088_14920# VDD sky130_fd_pr__pfet_01v8 ad=0p pd=0u as=0p ps=0u w=800000u l=900000u
X170 IL a_11368_10743# VSS VSS sky130_fd_pr__nfet_01v8 ad=0p pd=0u as=0p ps=0u w=1e+07u l=150000u
X171 a_11588_5826# a_10334_5311# a_11168_5826# VSS sky130_fd_pr__nfet_01v8 ad=2.494e+11p pd=2.88e+06u as=2.494e+11p ps=2.88e+06u w=430000u l=150000u
X172 VDD a_7566_10753# IL VDD sky130_fd_pr__pfet_01v8 ad=0p pd=0u as=0p ps=0u w=1.5e+07u l=150000u
X173 IL a_7566_10753# VDD VDD sky130_fd_pr__pfet_01v8 ad=0p pd=0u as=0p ps=0u w=1.5e+07u l=150000u
X174 VSS a_11368_10743# IL VSS sky130_fd_pr__nfet_01v8 ad=0p pd=0u as=0p ps=0u w=1e+07u l=150000u
X175 VSS a_11368_10743# IL VSS sky130_fd_pr__nfet_01v8 ad=0p pd=0u as=0p ps=0u w=1e+07u l=150000u
X176 VDD IBIAS1 a_16088_14920# VDD sky130_fd_pr__pfet_01v8 ad=0p pd=0u as=0p ps=0u w=800000u l=900000u
X177 VDD a_7566_10753# IL VDD sky130_fd_pr__pfet_01v8 ad=0p pd=0u as=0p ps=0u w=1.5e+07u l=150000u
X178 IL a_7566_10753# VDD VDD sky130_fd_pr__pfet_01v8 ad=0p pd=0u as=0p ps=0u w=1.5e+07u l=150000u
X179 a_70383_18394# a_67084_14777# VDD VDD sky130_fd_pr__pfet_01v8 ad=0p pd=0u as=0p ps=0u w=600000u l=150000u
X180 IBIAS1 IBIAS1 VDD VDD sky130_fd_pr__pfet_01v8 ad=2.32e+12p pd=1.658e+07u as=0p ps=0u w=8e+06u l=900000u
X181 a_82654_36220# a_85932_20271# VSS VSS sky130_fd_pr__nfet_01v8 ad=1.16e+13p pd=8.58e+07u as=0p ps=0u w=4e+06u l=150000u
X182 VDD a_7566_10753# IL VDD sky130_fd_pr__pfet_01v8 ad=0p pd=0u as=0p ps=0u w=1.5e+07u l=150000u
X183 IL a_7566_10753# VDD VDD sky130_fd_pr__pfet_01v8 ad=0p pd=0u as=0p ps=0u w=1.5e+07u l=150000u
X184 VSS a_11368_10743# IL VSS sky130_fd_pr__nfet_01v8 ad=0p pd=0u as=0p ps=0u w=1e+07u l=150000u
X185 a_70349_12443# a_69446_14795# a_70359_10810# VDD sky130_fd_pr__pfet_01v8 ad=6.96e+11p pd=7.12e+06u as=1.392e+12p ps=1.424e+07u w=600000u l=150000u
X186 a_11368_10743# a_11080_22588# VSS VSS sky130_fd_pr__nfet_01v8 ad=0p pd=0u as=0p ps=0u w=4e+06u l=150000u
X187 VSS a_11368_10743# IL VSS sky130_fd_pr__nfet_01v8 ad=0p pd=0u as=0p ps=0u w=1e+07u l=150000u
X188 IL a_7566_10753# VDD VDD sky130_fd_pr__pfet_01v8 ad=0p pd=0u as=0p ps=0u w=1.5e+07u l=150000u
X189 OUT a_82654_36220# a_82702_36308# VSS sky130_fd_pr__nfet_01v8 ad=0p pd=0u as=0p ps=0u w=1e+06u l=150000u
X190 a_7566_10753# a_7278_22598# VSS VSS sky130_fd_pr__nfet_01v8 ad=1.16e+13p pd=8.58e+07u as=0p ps=0u w=4e+06u l=150000u
X191 IL a_7566_10753# VDD VDD sky130_fd_pr__pfet_01v8 ad=0p pd=0u as=0p ps=0u w=1.5e+07u l=150000u
X192 IL a_7566_10753# VDD VDD sky130_fd_pr__pfet_01v8 ad=0p pd=0u as=0p ps=0u w=1.5e+07u l=150000u
X193 a_72247_29498# a_71243_29914# VDD VDD sky130_fd_pr__pfet_01v8 ad=1.392e+12p pd=1.424e+07u as=0p ps=0u w=600000u l=150000u
X194 IL a_11368_10743# VSS VSS sky130_fd_pr__nfet_01v8 ad=0p pd=0u as=0p ps=0u w=1e+07u l=150000u
X195 VDD a_82000_20095# a_82288_8250# VDD sky130_fd_pr__pfet_01v8 ad=0p pd=0u as=0p ps=0u w=1.2e+07u l=150000u
X196 VDD a_7566_10753# IL VDD sky130_fd_pr__pfet_01v8 ad=0p pd=0u as=0p ps=0u w=1.5e+07u l=150000u
X197 VDD a_7566_10753# IL VDD sky130_fd_pr__pfet_01v8 ad=0p pd=0u as=0p ps=0u w=1.5e+07u l=150000u
X198 a_17191_18793# IBIAS1 VDD VDD sky130_fd_pr__pfet_01v8 ad=2.32e+12p pd=1.658e+07u as=0p ps=0u w=8e+06u l=900000u
X199 VSS a_11368_10743# IL VSS sky130_fd_pr__nfet_01v8 ad=0p pd=0u as=0p ps=0u w=1e+07u l=150000u
X200 a_68179_11987# VSS sky130_fd_pr__cap_mim_m3_2 l=1.4e+07u w=1.4e+07u
X201 a_82288_8250# a_82000_20095# VSS VSS sky130_fd_pr__nfet_01v8 ad=0p pd=0u as=0p ps=0u w=4e+06u l=150000u
X202 VDD a_7566_10753# IL VDD sky130_fd_pr__pfet_01v8 ad=0p pd=0u as=0p ps=0u w=1.5e+07u l=150000u
X203 VDD a_7566_10753# IL VDD sky130_fd_pr__pfet_01v8 ad=0p pd=0u as=0p ps=0u w=1.5e+07u l=150000u
X204 a_72353_26935# a_73871_30593# VDD VDD sky130_fd_pr__pfet_01v8 ad=3.48e+11p pd=3.56e+06u as=0p ps=0u w=600000u l=150000u
X205 IL a_11368_10743# VSS VSS sky130_fd_pr__nfet_01v8 ad=0p pd=0u as=0p ps=0u w=1e+07u l=150000u
X206 a_69446_14795# a_69024_14793# VSS VSS sky130_fd_pr__nfet_01v8 ad=1.218e+11p pd=1.42e+06u as=0p ps=0u w=420000u l=150000u
X207 VSS a_11368_10743# IL VSS sky130_fd_pr__nfet_01v8 ad=0p pd=0u as=0p ps=0u w=1e+07u l=150000u
X208 IL a_7566_10753# VDD VDD sky130_fd_pr__pfet_01v8 ad=0p pd=0u as=0p ps=0u w=1.5e+07u l=150000u
X209 a_73821_14854# a_73011_16066# VDD VDD sky130_fd_pr__pfet_01v8 ad=0p pd=0u as=0p ps=0u w=600000u l=150000u
X210 a_70383_18394# a_67084_14777# VDD VDD sky130_fd_pr__pfet_01v8 ad=0p pd=0u as=0p ps=0u w=600000u l=150000u
X211 a_66245_14773# a_58547_30718# VDD VDD sky130_fd_pr__pfet_01v8 ad=3.48e+11p pd=2.98e+06u as=0p ps=0u w=1.2e+06u l=150000u
X212 IL a_7566_10753# VDD VDD sky130_fd_pr__pfet_01v8 ad=0p pd=0u as=0p ps=0u w=1.5e+07u l=150000u
X213 VDD a_7278_22598# a_7566_10753# VDD sky130_fd_pr__pfet_01v8 ad=0p pd=0u as=0p ps=0u w=1.2e+07u l=150000u
X214 IL a_11368_10743# VSS VSS sky130_fd_pr__nfet_01v8 ad=0p pd=0u as=0p ps=0u w=1e+07u l=150000u
X215 a_16885_14913# a_18127_16042# a_18069_15548# VDD sky130_fd_pr__pfet_01v8 ad=0p pd=0u as=0p ps=0u w=800000u l=900000u
X216 a_70373_17865# a_66153_13500# a_70383_18394# VDD sky130_fd_pr__pfet_01v8 ad=6.96e+11p pd=7.12e+06u as=0p ps=0u w=600000u l=150000u
X217 a_71259_32538# a_70429_33459# VDD VDD sky130_fd_pr__pfet_01v8 ad=3.48e+11p pd=3.56e+06u as=0p ps=0u w=600000u l=150000u
X218 a_70353_13117# a_69386_13417# a_70363_13646# VDD sky130_fd_pr__pfet_01v8 ad=6.96e+11p pd=7.12e+06u as=0p ps=0u w=600000u l=150000u
X219 IL a_11368_10743# VSS VSS sky130_fd_pr__nfet_01v8 ad=0p pd=0u as=0p ps=0u w=1e+07u l=150000u
X220 IL a_7566_10753# VDD VDD sky130_fd_pr__pfet_01v8 ad=0p pd=0u as=0p ps=0u w=1.5e+07u l=150000u
X221 a_22716_6309# a_31428_5991# VSS sky130_fd_pr__res_xhigh_po_0p35 l=4.14e+07u
X222 a_70359_10810# a_68133_13419# VDD VDD sky130_fd_pr__pfet_01v8 ad=0p pd=0u as=0p ps=0u w=600000u l=150000u
X223 a_72293_10667# a_73811_14325# VDD VDD sky130_fd_pr__pfet_01v8 ad=3.48e+11p pd=3.56e+06u as=0p ps=0u w=600000u l=150000u
X224 VDD IBIAS1 a_16885_14913# VDD sky130_fd_pr__pfet_01v8 ad=0p pd=0u as=0p ps=0u w=800000u l=900000u
X225 IL a_11368_10743# VSS VSS sky130_fd_pr__nfet_01v8 ad=0p pd=0u as=0p ps=0u w=1e+07u l=150000u
X226 a_72237_31131# a_71239_27790# a_72247_29498# VDD sky130_fd_pr__pfet_01v8 ad=6.96e+11p pd=7.12e+06u as=0p ps=0u w=600000u l=150000u
X227 IL a_11368_10743# VSS VSS sky130_fd_pr__nfet_01v8 ad=0p pd=0u as=0p ps=0u w=1e+07u l=150000u
X228 VDD a_7566_10753# IL VDD sky130_fd_pr__pfet_01v8 ad=0p pd=0u as=0p ps=0u w=1.5e+07u l=150000u
X229 a_72351_11284# a_58547_30718# VDD VDD sky130_fd_pr__pfet_01v8 ad=1.392e+12p pd=1.424e+07u as=0p ps=0u w=600000u l=150000u
X230 a_19597_14974# a_18069_15548# VSS VSS sky130_fd_pr__nfet_01v8 ad=1.392e+12p pd=1.308e+07u as=0p ps=0u w=800000u l=900000u
D1 VSS a_6572_28385# sky130_fd_pr__diode_pw2nd_05v5 pj=1.8e+06u area=2.025e+11p
X231 VDD a_7566_10753# IL VDD sky130_fd_pr__pfet_01v8 ad=0p pd=0u as=0p ps=0u w=1.5e+07u l=150000u
X232 a_72251_32334# a_71263_34662# VDD VDD sky130_fd_pr__pfet_01v8 ad=1.392e+12p pd=1.424e+07u as=0p ps=0u w=600000u l=150000u
X233 a_10334_5311# a_7812_5796# a_9914_5311# VDD sky130_fd_pr__pfet_01v8 ad=1.247e+11p pd=1.44e+06u as=2.494e+11p ps=2.88e+06u w=430000u l=150000u
X234 IL a_7566_10753# VDD VDD sky130_fd_pr__pfet_01v8 ad=0p pd=0u as=0p ps=0u w=1.5e+07u l=150000u
X235 a_73871_30593# a_73067_30210# a_73881_31122# VDD sky130_fd_pr__pfet_01v8 ad=6.96e+11p pd=7.12e+06u as=0p ps=0u w=600000u l=150000u
X236 IL a_7566_10753# VDD VDD sky130_fd_pr__pfet_01v8 ad=0p pd=0u as=0p ps=0u w=1.5e+07u l=150000u
X237 a_11978_8289# a_10728_7770# a_11558_8289# VDD sky130_fd_pr__pfet_01v8 ad=2.494e+11p pd=2.88e+06u as=2.494e+11p ps=2.88e+06u w=430000u l=150000u
X238 a_69446_14795# a_69024_14793# VDD VDD sky130_fd_pr__pfet_01v8 ad=3.48e+11p pd=2.98e+06u as=0p ps=0u w=1.2e+06u l=150000u
X239 VDD a_7566_10753# IL VDD sky130_fd_pr__pfet_01v8 ad=0p pd=0u as=0p ps=0u w=1.5e+07u l=150000u
X240 VDD a_7566_10753# IL VDD sky130_fd_pr__pfet_01v8 ad=0p pd=0u as=0p ps=0u w=1.5e+07u l=150000u
X241 a_11368_10743# a_11080_22588# VSS VSS sky130_fd_pr__nfet_01v8 ad=0p pd=0u as=0p ps=0u w=4e+06u l=150000u
X242 a_17203_21541# a_17191_18793# a_17191_18793# VSS sky130_fd_pr__nfet_01v8 ad=3.48e+12p pd=2.748e+07u as=1.392e+12p ps=1.308e+07u w=800000u l=900000u
X243 IL a_7566_10753# VDD VDD sky130_fd_pr__pfet_01v8 ad=0p pd=0u as=0p ps=0u w=1.5e+07u l=150000u
X244 a_72241_31805# a_71259_32538# a_72251_32334# VDD sky130_fd_pr__pfet_01v8 ad=6.96e+11p pd=7.12e+06u as=0p ps=0u w=600000u l=150000u
X245 a_68245_31057# a_68153_29784# VSS VSS sky130_fd_pr__nfet_01v8 ad=1.218e+11p pd=1.42e+06u as=0p ps=0u w=420000u l=150000u
X246 VDD a_66253_29671# a_66213_29768# VDD sky130_fd_pr__pfet_01v8 ad=0p pd=0u as=3.48e+11p ps=2.98e+06u w=1.2e+06u l=150000u
X247 a_15089_10332# a_18127_16042# a_16088_14920# VDD sky130_fd_pr__pfet_01v8 ad=0p pd=0u as=0p ps=0u w=800000u l=900000u
X248 a_7566_10753# a_7278_22598# VSS VSS sky130_fd_pr__nfet_01v8 ad=0p pd=0u as=0p ps=0u w=4e+06u l=150000u
X249 VDD a_7566_10753# IL VDD sky130_fd_pr__pfet_01v8 ad=0p pd=0u as=0p ps=0u w=1.5e+07u l=150000u
X250 IL a_11368_10743# VSS VSS sky130_fd_pr__nfet_01v8 ad=0p pd=0u as=0p ps=0u w=1e+07u l=150000u
X251 VDD a_67418_10653# a_67006_10653# VDD sky130_fd_pr__pfet_01v8 ad=0p pd=0u as=3.48e+11p ps=2.98e+06u w=1.2e+06u l=150000u
X252 VDD a_7566_10753# IL VDD sky130_fd_pr__pfet_01v8 ad=0p pd=0u as=0p ps=0u w=1.5e+07u l=150000u
X253 VDD IBIAS1 a_16885_14913# VDD sky130_fd_pr__pfet_01v8 ad=0p pd=0u as=0p ps=0u w=800000u l=900000u
X254 IL a_7566_10753# VDD VDD sky130_fd_pr__pfet_01v8 ad=0p pd=0u as=0p ps=0u w=1.5e+07u l=150000u
X255 VDD a_7566_10753# IL VDD sky130_fd_pr__pfet_01v8 ad=0p pd=0u as=0p ps=0u w=1.5e+07u l=150000u
X256 IL a_7566_10753# VDD VDD sky130_fd_pr__pfet_01v8 ad=0p pd=0u as=0p ps=0u w=1.5e+07u l=150000u
X257 VDD a_7566_10753# IL VDD sky130_fd_pr__pfet_01v8 ad=0p pd=0u as=0p ps=0u w=1.5e+07u l=150000u
X258 VDD a_7566_10753# IL VDD sky130_fd_pr__pfet_01v8 ad=0p pd=0u as=0p ps=0u w=1.5e+07u l=150000u
X259 VDD a_7278_22598# a_7566_10753# VDD sky130_fd_pr__pfet_01v8 ad=0p pd=0u as=0p ps=0u w=1.2e+07u l=150000u
X260 IL a_7566_10753# VDD VDD sky130_fd_pr__pfet_01v8 ad=0p pd=0u as=0p ps=0u w=1.5e+07u l=150000u
X261 a_82654_36220# a_85932_20271# VSS VSS sky130_fd_pr__nfet_01v8 ad=0p pd=0u as=0p ps=0u w=4e+06u l=150000u
X262 VDD a_11080_22588# a_11368_10743# VDD sky130_fd_pr__pfet_01v8 ad=0p pd=0u as=0p ps=0u w=1.2e+07u l=150000u
X263 VDD a_7566_10753# IL VDD sky130_fd_pr__pfet_01v8 ad=0p pd=0u as=0p ps=0u w=1.5e+07u l=150000u
X264 IL a_7566_10753# VDD VDD sky130_fd_pr__pfet_01v8 ad=0p pd=0u as=0p ps=0u w=1.5e+07u l=150000u