** sch_path:
*+ /home/shahid/Desktop/EDA/test/DC_DC_Converter_xschem/1-10-22_xschem/DC_DC_Converter_xschem/DC_DC_Converter/TOP_LEVEL/Top_Final/Top_1_TB.sch
**.subckt Top_1_TB
V2 VDD GND 1.8
V5 VSS GND 0
V4 VREF GND 0.9
V6 Sawtooth GND pwl(0 0 9.99ns 1.8 10ns 0) r=0
I2 IB1 VSS 50u
I3 IB2 VSS 50u
L2 IL OUT1 100n m=1
C2 OUT1 net1 3n m=1
R8 VSS net1 40m m=1
XM4 net2 DL OUT1 VDD sky130_fd_pr__pfet_01v8 L=0.15 W=10 nf=1 ad='int((nf+1)/2) * W/nf * 0.29' as='int((nf+2)/2) * W/nf * 0.29'
+ pd='2*int((nf+1)/2) * (W/nf + 0.29)' ps='2*int((nf+2)/2) * (W/nf + 0.29)' nrd='0.29 / W' nrs='0.29 / W'
+ sa=0 sb=0 sd=0 mult=450 m=450
V13 DL GND pwl(0 1.8 3.5us 1.8 3.51us 0 7us 0) r=0
R9 OUT1 VSS 40 m=1
R10 net2 VSS 4 m=1
x1 VDD VSS Sawtooth VREF IB1 OUT1 IB2 IL Top_1
**** begin user architecture code
** manual skywater pdks install (with patches applied)
* .lib /home/shahid/OSPDKs/sky130A/libs.tech/ngspice/models/sky130.lib.spice tt

** opencircuitdesign pdks install
.lib /home/shahid/OSPDKs/sky130A/libs.tech/ngspice/sky130.lib.spice tt
.include /home/shahid/OSPDKs/sky130A/libs.ref/sky130_fd_sc_hd/spice/sky130_fd_sc_hd.spice




.control

tran 200p 8u
plot  v(OUT1) v(DL)

.endc


**** end user architecture code
**.ends

* expanding   symbol:  DC_DC_Converter/TOP_LEVEL/Top_Final/Top_1.sym # of pins=8
** sym_path:
*+ /home/shahid/Desktop/EDA/test/DC_DC_Converter_xschem/1-10-22_xschem/DC_DC_Converter_xschem/DC_DC_Converter/TOP_LEVEL/Top_Final/Top_1.sym
** sch_path:
*+ /home/shahid/Desktop/EDA/test/DC_DC_Converter_xschem/1-10-22_xschem/DC_DC_Converter_xschem/DC_DC_Converter/TOP_LEVEL/Top_Final/Top_1.sch
.subckt Top_1  VDD VSS SAWTOOTH VREF IBIAS1 OUT1 IBIAS2 IL
*.iopin VDD
*.iopin VSS
*.iopin IBIAS1
*.iopin SAWTOOTH
*.iopin VREF
*.iopin IBIAS2
*.iopin OUT1
*.iopin IL
X7 PH2 V_P VDD VSS BUFFER_P
XC4 net3 net1 sky130_fd_pr__cap_mim_m3_1 W=3.4 L=4 MF=1 m=1
XC7 net2 net1 sky130_fd_pr__cap_mim_m3_1 W=22 L=22.5 MF=1 m=1
XC8 net4 net1 sky130_fd_pr__cap_mim_m3_1 W=9.8 L=9.9 MF=1 m=1
XM5 IBIAS2 VDD SAWTOOTH net3 VSS net5 Comp_lvt
X8 PH1 V_N VDD VSS BUFFER_N
XR11 net2 net3 VSS sky130_fd_pr__res_xhigh_po_0p35 L=18.19 mult=1 m=1
XR12 net1 OUT1 VSS sky130_fd_pr__res_xhigh_po_0p35 L=45.9 mult=1 m=1
XR14 net4 OUT1 VSS sky130_fd_pr__res_xhigh_po_0p35 L=1.47 mult=1 m=1
XM4 VDD VSS IBIAS1 net3 VREF net1 Folded_OPAMP_2
XR1 net6 net1 VSS sky130_fd_pr__res_xhigh_po_0p35 L=41.4 mult=1 m=1
XR2 net7 net6 VSS sky130_fd_pr__res_xhigh_po_0p35 L=41.4 mult=1 m=1
XR3 net8 net7 VSS sky130_fd_pr__res_xhigh_po_0p35 L=41.4 mult=1 m=1
XR4 net9 net8 VSS sky130_fd_pr__res_xhigh_po_0p35 L=41.4 mult=1 m=1
XR5 net10 net9 VSS sky130_fd_pr__res_xhigh_po_0p35 L=41.4 mult=1 m=1
XR6 net11 net10 VSS sky130_fd_pr__res_xhigh_po_0p35 L=41.4 mult=1 m=1
XR7 net12 net11 VSS sky130_fd_pr__res_xhigh_po_0p35 L=41.4 mult=1 m=1
XR8 net13 net12 VSS sky130_fd_pr__res_xhigh_po_0p35 L=41.4 mult=1 m=1
XR9 net14 net13 VSS sky130_fd_pr__res_xhigh_po_0p35 L=41.4 mult=1 m=1
XR10 VSS net14 VSS sky130_fd_pr__res_xhigh_po_0p35 L=41.4 mult=1 m=1
x1 VDD net5 PH1 VSS PH2 Non_over_clk
x2 VDD V_P IL P_Power_mosfets
x3 VSS V_N IL N_Power_mosfets
.ends


* expanding   symbol:  DC_DC_Converter/BUFFER/BUFFER_PMOS/BUFFER_P.sym # of pins=4
** sym_path:
*+ /home/shahid/Desktop/EDA/test/DC_DC_Converter_xschem/1-10-22_xschem/DC_DC_Converter_xschem/DC_DC_Converter/BUFFER/BUFFER_PMOS/BUFFER_P.sym
** sch_path:
*+ /home/shahid/Desktop/EDA/test/DC_DC_Converter_xschem/1-10-22_xschem/DC_DC_Converter_xschem/DC_DC_Converter/BUFFER/BUFFER_PMOS/BUFFER_P.sch
.subckt BUFFER_P  VIN VOUT VDD VSS
*.iopin VDD
*.iopin VIN
*.iopin VSS
*.iopin VOUT
X7 net3 net1 VDD VSS Inverter0
X8 net1 net2 VDD VSS Inverter1
X1 net2 VOUT VDD VSS Inverter2
X2 VIN net3 VDD VSS Inverter0
D1 VSS VIN sky130_fd_pr__diode_pw2nd_05v5 area=1e12
.ends


* expanding   symbol:  DC_DC_Converter/Comparator/Comp_lvt.sym # of pins=6
** sym_path:
*+ /home/shahid/Desktop/EDA/test/DC_DC_Converter_xschem/1-10-22_xschem/DC_DC_Converter_xschem/DC_DC_Converter/Comparator/Comp_lvt.sym
** sch_path:
*+ /home/shahid/Desktop/EDA/test/DC_DC_Converter_xschem/1-10-22_xschem/DC_DC_Converter_xschem/DC_DC_Converter/Comparator/Comp_lvt.sch
.subckt Comp_lvt  IBIAS VDD IN_P IN_N VSS OUT
*.iopin VSS
*.iopin VDD
*.iopin IN_P
*.iopin IN_N
*.iopin OUT
*.iopin IBIAS
XM16 2_P 1_N VDD VDD sky130_fd_pr__pfet_01v8_lvt L=0.5 W=3 nf=1 ad='int((nf+1)/2) * W/nf * 0.29' as='int((nf+2)/2) * W/nf * 0.29'
+ pd='2*int((nf+1)/2) * (W/nf + 0.29)' ps='2*int((nf+2)/2) * (W/nf + 0.29)' nrd='0.29 / W' nrs='0.29 / W'
+ sa=0 sb=0 sd=0 mult=1 m=1
XM4 1_N 1_N VDD VDD sky130_fd_pr__pfet_01v8_lvt L=0.5 W=3 nf=1 ad='int((nf+1)/2) * W/nf * 0.29' as='int((nf+2)/2) * W/nf * 0.29'
+ pd='2*int((nf+1)/2) * (W/nf + 0.29)' ps='2*int((nf+2)/2) * (W/nf + 0.29)' nrd='0.29 / W' nrs='0.29 / W'
+ sa=0 sb=0 sd=0 mult=1 m=1
XM5 1_N 1_P VDD VDD sky130_fd_pr__pfet_01v8_lvt L=0.5 W=3 nf=1 ad='int((nf+1)/2) * W/nf * 0.29' as='int((nf+2)/2) * W/nf * 0.29'
+ pd='2*int((nf+1)/2) * (W/nf + 0.29)' ps='2*int((nf+2)/2) * (W/nf + 0.29)' nrd='0.29 / W' nrs='0.29 / W'
+ sa=0 sb=0 sd=0 mult=1 m=1
XM3 1_P 1_N VDD VDD sky130_fd_pr__pfet_01v8_lvt L=0.5 W=3 nf=1 ad='int((nf+1)/2) * W/nf * 0.29' as='int((nf+2)/2) * W/nf * 0.29'
+ pd='2*int((nf+1)/2) * (W/nf + 0.29)' ps='2*int((nf+2)/2) * (W/nf + 0.29)' nrd='0.29 / W' nrs='0.29 / W'
+ sa=0 sb=0 sd=0 mult=1 m=1
XM6 1_P 1_P VDD VDD sky130_fd_pr__pfet_01v8_lvt L=0.5 W=3 nf=1 ad='int((nf+1)/2) * W/nf * 0.29' as='int((nf+2)/2) * W/nf * 0.29'
+ pd='2*int((nf+1)/2) * (W/nf + 0.29)' ps='2*int((nf+2)/2) * (W/nf + 0.29)' nrd='0.29 / W' nrs='0.29 / W'
+ sa=0 sb=0 sd=0 mult=1 m=1
XM7 2_N 1_P VDD VDD sky130_fd_pr__pfet_01v8_lvt L=0.5 W=3 nf=1 ad='int((nf+1)/2) * W/nf * 0.29' as='int((nf+2)/2) * W/nf * 0.29'
+ pd='2*int((nf+1)/2) * (W/nf + 0.29)' ps='2*int((nf+2)/2) * (W/nf + 0.29)' nrd='0.29 / W' nrs='0.29 / W'
+ sa=0 sb=0 sd=0 mult=1 m=1
XM8 2_P 2_P VSS VSS sky130_fd_pr__nfet_01v8_lvt L=1 W=1 nf=1 ad='int((nf+1)/2) * W/nf * 0.29' as='int((nf+2)/2) * W/nf * 0.29'
+ pd='2*int((nf+1)/2) * (W/nf + 0.29)' ps='2*int((nf+2)/2) * (W/nf + 0.29)' nrd='0.29 / W' nrs='0.29 / W'
+ sa=0 sb=0 sd=0 mult=1 m=1
XM2 2_N 2_P VSS VSS sky130_fd_pr__nfet_01v8_lvt L=1 W=1 nf=1 ad='int((nf+1)/2) * W/nf * 0.29' as='int((nf+2)/2) * W/nf * 0.29'
+ pd='2*int((nf+1)/2) * (W/nf + 0.29)' ps='2*int((nf+2)/2) * (W/nf + 0.29)' nrd='0.29 / W' nrs='0.29 / W'
+ sa=0 sb=0 sd=0 mult=1 m=1
XM9 1_P IN_N IBIAS VSS sky130_fd_pr__nfet_01v8_lvt L=0.7 W=5 nf=1 ad='int((nf+1)/2) * W/nf * 0.29' as='int((nf+2)/2) * W/nf * 0.29'
+ pd='2*int((nf+1)/2) * (W/nf + 0.29)' ps='2*int((nf+2)/2) * (W/nf + 0.29)' nrd='0.29 / W' nrs='0.29 / W'
+ sa=0 sb=0 sd=0 mult=1 m=1
XM1 1_N IN_P IBIAS VSS sky130_fd_pr__nfet_01v8_lvt L=0.7 W=5 nf=1 ad='int((nf+1)/2) * W/nf * 0.29' as='int((nf+2)/2) * W/nf * 0.29'
+ pd='2*int((nf+1)/2) * (W/nf + 0.29)' ps='2*int((nf+2)/2) * (W/nf + 0.29)' nrd='0.29 / W' nrs='0.29 / W'
+ sa=0 sb=0 sd=0 mult=1 m=1
XM10 OUT 2_N VDD VDD sky130_fd_pr__pfet_01v8_lvt L=0.5 W=2.5 nf=1 ad='int((nf+1)/2) * W/nf * 0.29' as='int((nf+2)/2) * W/nf * 0.29'
+ pd='2*int((nf+1)/2) * (W/nf + 0.29)' ps='2*int((nf+2)/2) * (W/nf + 0.29)' nrd='0.29 / W' nrs='0.29 / W'
+ sa=0 sb=0 sd=0 mult=1 m=1
XM13 OUT 2_N VSS VSS sky130_fd_pr__nfet_01v8_lvt L=0.5 W=1 nf=1 ad='int((nf+1)/2) * W/nf * 0.29' as='int((nf+2)/2) * W/nf * 0.29'
+ pd='2*int((nf+1)/2) * (W/nf + 0.29)' ps='2*int((nf+2)/2) * (W/nf + 0.29)' nrd='0.29 / W' nrs='0.29 / W'
+ sa=0 sb=0 sd=0 mult=1 m=1
.ends


* expanding   symbol:  DC_DC_Converter/BUFFER/BUFFER_NMOS/BUFFER_N.sym # of pins=4
** sym_path:
*+ /home/shahid/Desktop/EDA/test/DC_DC_Converter_xschem/1-10-22_xschem/DC_DC_Converter_xschem/DC_DC_Converter/BUFFER/BUFFER_NMOS/BUFFER_N.sym
** sch_path:
*+ /home/shahid/Desktop/EDA/test/DC_DC_Converter_xschem/1-10-22_xschem/DC_DC_Converter_xschem/DC_DC_Converter/BUFFER/BUFFER_NMOS/BUFFER_N.sch
.subckt BUFFER_N  VIN VOUT VDD VSS
*.iopin VDD
*.iopin VIN
*.iopin VSS
*.iopin VOUT
X7 net3 net1 VDD VSS Inverter0
X8 net1 net2 VDD VSS Inverter1
X79 net2 VOUT VDD VSS Inverter2
X29 VIN net3 VDD VSS Inverter0
D1 VSS VIN sky130_fd_pr__diode_pw2nd_05v5 area=1e12
.ends


* expanding   symbol:  DC_DC_Converter/Folded_OPAMP/Folded_OPAMP_2.sym # of pins=6
** sym_path:
*+ /home/shahid/Desktop/EDA/test/DC_DC_Converter_xschem/1-10-22_xschem/DC_DC_Converter_xschem/DC_DC_Converter/Folded_OPAMP/Folded_OPAMP_2.sym
** sch_path:
*+ /home/shahid/Desktop/EDA/test/DC_DC_Converter_xschem/1-10-22_xschem/DC_DC_Converter_xschem/DC_DC_Converter/Folded_OPAMP/Folded_OPAMP_2.sch
.subckt Folded_OPAMP_2  VDD VSS BIAS1 OUT VIN VREF
*.iopin VSS
*.iopin VDD
*.opin OUT
*.ipin VIN
*.ipin VREF
*.iopin BIAS1
XM3 VOUTP BIAS1 VDD VDD sky130_fd_pr__pfet_01v8 L=0.9 W=4 nf=5 ad='int((nf+1)/2) * W/nf * 0.29' as='int((nf+2)/2) * W/nf * 0.29'
+ pd='2*int((nf+1)/2) * (W/nf + 0.29)' ps='2*int((nf+2)/2) * (W/nf + 0.29)' nrd='0.29 / W' nrs='0.29 / W'
+ sa=0 sb=0 sd=0 mult=5 m=5
XM4 VOUTN BIAS1 VDD VDD sky130_fd_pr__pfet_01v8 L=0.9 W=4 nf=5 ad='int((nf+1)/2) * W/nf * 0.29' as='int((nf+2)/2) * W/nf * 0.29'
+ pd='2*int((nf+1)/2) * (W/nf + 0.29)' ps='2*int((nf+2)/2) * (W/nf + 0.29)' nrd='0.29 / W' nrs='0.29 / W'
+ sa=0 sb=0 sd=0 mult=5 m=5
XM6 OUT BIAS2 VOUTN VDD sky130_fd_pr__pfet_01v8 L=0.9 W=4 nf=5 ad='int((nf+1)/2) * W/nf * 0.29' as='int((nf+2)/2) * W/nf * 0.29'
+ pd='2*int((nf+1)/2) * (W/nf + 0.29)' ps='2*int((nf+2)/2) * (W/nf + 0.29)' nrd='0.29 / W' nrs='0.29 / W'
+ sa=0 sb=0 sd=0 mult=5 m=5
XM7 net3 BIAS2 VOUTP VDD sky130_fd_pr__pfet_01v8 L=0.9 W=4 nf=5 ad='int((nf+1)/2) * W/nf * 0.29' as='int((nf+2)/2) * W/nf * 0.29'
+ pd='2*int((nf+1)/2) * (W/nf + 0.29)' ps='2*int((nf+2)/2) * (W/nf + 0.29)' nrd='0.29 / W' nrs='0.29 / W'
+ sa=0 sb=0 sd=0 mult=5 m=5
XM13 net4 net4 BIAS2 VSS sky130_fd_pr__nfet_01v8 L=0.9 W=5 nf=1 ad='int((nf+1)/2) * W/nf * 0.29' as='int((nf+2)/2) * W/nf * 0.29'
+ pd='2*int((nf+1)/2) * (W/nf + 0.29)' ps='2*int((nf+2)/2) * (W/nf + 0.29)' nrd='0.29 / W' nrs='0.29 / W'
+ sa=0 sb=0 sd=0 mult=1 m=1
XM14 BIAS3 BIAS3 net5 VSS sky130_fd_pr__nfet_01v8 L=0.9 W=8 nf=10 ad='int((nf+1)/2) * W/nf * 0.29' as='int((nf+2)/2) * W/nf * 0.29'
+ pd='2*int((nf+1)/2) * (W/nf + 0.29)' ps='2*int((nf+2)/2) * (W/nf + 0.29)' nrd='0.29 / W' nrs='0.29 / W'
+ sa=0 sb=0 sd=0 mult=1 m=1
XM15 BIAS2 BIAS2 VSS VSS sky130_fd_pr__nfet_01v8 L=0.9 W=5 nf=1 ad='int((nf+1)/2) * W/nf * 0.29' as='int((nf+2)/2) * W/nf * 0.29'
+ pd='2*int((nf+1)/2) * (W/nf + 0.29)' ps='2*int((nf+2)/2) * (W/nf + 0.29)' nrd='0.29 / W' nrs='0.29 / W'
+ sa=0 sb=0 sd=0 mult=1 m=1
XM17 VOUTP VIN net6 VSS sky130_fd_pr__nfet_01v8 L=0.9 W=10 nf=1 ad='int((nf+1)/2) * W/nf * 0.29' as='int((nf+2)/2) * W/nf * 0.29'
+ pd='2*int((nf+1)/2) * (W/nf + 0.29)' ps='2*int((nf+2)/2) * (W/nf + 0.29)' nrd='0.29 / W' nrs='0.29 / W'
+ sa=0 sb=0 sd=0 mult=8 m=8
XM18 VOUTN VREF net6 VSS sky130_fd_pr__nfet_01v8 L=0.9 W=10 nf=1 ad='int((nf+1)/2) * W/nf * 0.29' as='int((nf+2)/2) * W/nf * 0.29'
+ pd='2*int((nf+1)/2) * (W/nf + 0.29)' ps='2*int((nf+2)/2) * (W/nf + 0.29)' nrd='0.29 / W' nrs='0.29 / W'
+ sa=0 sb=0 sd=0 mult=8 m=8
XM10 OUT BIAS3 net1 VSS sky130_fd_pr__nfet_01v8 L=0.9 W=4 nf=5 ad='int((nf+1)/2) * W/nf * 0.29' as='int((nf+2)/2) * W/nf * 0.29'
+ pd='2*int((nf+1)/2) * (W/nf + 0.29)' ps='2*int((nf+2)/2) * (W/nf + 0.29)' nrd='0.29 / W' nrs='0.29 / W'
+ sa=0 sb=0 sd=0 mult=1 m=1
XM12 net3 BIAS3 net2 VSS sky130_fd_pr__nfet_01v8 L=0.9 W=4 nf=5 ad='int((nf+1)/2) * W/nf * 0.29' as='int((nf+2)/2) * W/nf * 0.29'
+ pd='2*int((nf+1)/2) * (W/nf + 0.29)' ps='2*int((nf+2)/2) * (W/nf + 0.29)' nrd='0.29 / W' nrs='0.29 / W'
+ sa=0 sb=0 sd=0 mult=1 m=1
XM8 net5 net5 VSS VSS sky130_fd_pr__nfet_01v8 L=0.9 W=8 nf=1 ad='int((nf+1)/2) * W/nf * 0.29' as='int((nf+2)/2) * W/nf * 0.29'
+ pd='2*int((nf+1)/2) * (W/nf + 0.29)' ps='2*int((nf+2)/2) * (W/nf + 0.29)' nrd='0.29 / W' nrs='0.29 / W'
+ sa=0 sb=0 sd=0 mult=1 m=1
XM9 net6 net5 VSS VSS sky130_fd_pr__nfet_01v8 L=0.9 W=8 nf=1 ad='int((nf+1)/2) * W/nf * 0.29' as='int((nf+2)/2) * W/nf * 0.29'
+ pd='2*int((nf+1)/2) * (W/nf + 0.29)' ps='2*int((nf+2)/2) * (W/nf + 0.29)' nrd='0.29 / W' nrs='0.29 / W'
+ sa=0 sb=0 sd=0 mult=5 m=5
XM5 net2 net3 VSS VSS sky130_fd_pr__nfet_01v8 L=0.9 W=4 nf=5 ad='int((nf+1)/2) * W/nf * 0.29' as='int((nf+2)/2) * W/nf * 0.29'
+ pd='2*int((nf+1)/2) * (W/nf + 0.29)' ps='2*int((nf+2)/2) * (W/nf + 0.29)' nrd='0.29 / W' nrs='0.29 / W'
+ sa=0 sb=0 sd=0 mult=1 m=1
XM11 net1 net3 VSS VSS sky130_fd_pr__nfet_01v8 L=0.9 W=4 nf=5 ad='int((nf+1)/2) * W/nf * 0.29' as='int((nf+2)/2) * W/nf * 0.29'
+ pd='2*int((nf+1)/2) * (W/nf + 0.29)' ps='2*int((nf+2)/2) * (W/nf + 0.29)' nrd='0.29 / W' nrs='0.29 / W'
+ sa=0 sb=0 sd=0 mult=1 m=1
XM1 BIAS1 BIAS1 VDD VDD sky130_fd_pr__pfet_01v8 L=0.9 W=8 nf=1 ad='int((nf+1)/2) * W/nf * 0.29' as='int((nf+2)/2) * W/nf * 0.29'
+ pd='2*int((nf+1)/2) * (W/nf + 0.29)' ps='2*int((nf+2)/2) * (W/nf + 0.29)' nrd='0.29 / W' nrs='0.29 / W'
+ sa=0 sb=0 sd=0 mult=1 m=1
XM2 BIAS3 BIAS1 VDD VDD sky130_fd_pr__pfet_01v8 L=0.9 W=8 nf=1 ad='int((nf+1)/2) * W/nf * 0.29' as='int((nf+2)/2) * W/nf * 0.29'
+ pd='2*int((nf+1)/2) * (W/nf + 0.29)' ps='2*int((nf+2)/2) * (W/nf + 0.29)' nrd='0.29 / W' nrs='0.29 / W'
+ sa=0 sb=0 sd=0 mult=1 m=1
XR1 net4 VDD VSS sky130_fd_pr__res_high_po_0p35 L=1 mult=1 m=1
XR2 VSS net4 VSS sky130_fd_pr__res_high_po_0p35 L=1 mult=1 m=1
.ends


* expanding   symbol:  DC_DC_Converter/Non_Overlap_Clk/Non_over_clk.sym # of pins=5
** sym_path:
*+ /home/shahid/Desktop/EDA/test/DC_DC_Converter_xschem/1-10-22_xschem/DC_DC_Converter_xschem/DC_DC_Converter/Non_Overlap_Clk/Non_over_clk.sym
** sch_path:
*+ /home/shahid/Desktop/EDA/test/DC_DC_Converter_xschem/1-10-22_xschem/DC_DC_Converter_xschem/DC_DC_Converter/Non_Overlap_Clk/Non_over_clk.sch
.subckt Non_over_clk  VDD CLK PH1 VSS PH2
*.iopin VDD
*.iopin VSS
*.iopin CLK
*.iopin PH1
*.iopin PH2
X11 VSS VDD CLK net1 Inverter
X1 VSS VDD net7 net9 Inverter
X2 VSS VDD net9 PH1 Inverter
X3 VSS VDD net6 net8 Inverter
X8 VSS VDD net8 G Inverter
X9 VSS VDD G PH2 Inverter
X10 VSS VDD net3 net2 Inverter_64
X4 VSS VDD net2 net7 Inverter_64
X5 VSS VDD net4 net6 Inverter_64
X6 VSS VDD net5 net4 Inverter_64
X_NOR1 VDD VSS CLK PH1 net5 NOR
X_NOR2 VDD VSS net1 G net3 NOR
.ends


* expanding   symbol:  DC_DC_Converter/Power_Mosfet/P_Power_mosfets.sym # of pins=3
** sym_path:
*+ /home/shahid/Desktop/EDA/test/DC_DC_Converter_xschem/1-10-22_xschem/DC_DC_Converter_xschem/DC_DC_Converter/Power_Mosfet/P_Power_mosfets.sym
** sch_path:
*+ /home/shahid/Desktop/EDA/test/DC_DC_Converter_xschem/1-10-22_xschem/DC_DC_Converter_xschem/DC_DC_Converter/Power_Mosfet/P_Power_mosfets.sch
.subckt P_Power_mosfets  VDD VP IL
*.iopin VDD
*.iopin VP
*.iopin IL
XM2 IL VP VDD VDD sky130_fd_pr__pfet_01v8 L=0.15 W=150 nf=10 ad='int((nf+1)/2) * W/nf * 0.29' as='int((nf+2)/2) * W/nf * 0.29'
+ pd='2*int((nf+1)/2) * (W/nf + 0.29)' ps='2*int((nf+2)/2) * (W/nf + 0.29)' nrd='0.29 / W' nrs='0.29 / W'
+ sa=0 sb=0 sd=0 mult=1 m=1
XM1 IL VP VDD VDD sky130_fd_pr__pfet_01v8 L=0.15 W=150 nf=10 ad='int((nf+1)/2) * W/nf * 0.29' as='int((nf+2)/2) * W/nf * 0.29'
+ pd='2*int((nf+1)/2) * (W/nf + 0.29)' ps='2*int((nf+2)/2) * (W/nf + 0.29)' nrd='0.29 / W' nrs='0.29 / W'
+ sa=0 sb=0 sd=0 mult=1 m=1
XM3 IL VP VDD VDD sky130_fd_pr__pfet_01v8 L=0.15 W=150 nf=10 ad='int((nf+1)/2) * W/nf * 0.29' as='int((nf+2)/2) * W/nf * 0.29'
+ pd='2*int((nf+1)/2) * (W/nf + 0.29)' ps='2*int((nf+2)/2) * (W/nf + 0.29)' nrd='0.29 / W' nrs='0.29 / W'
+ sa=0 sb=0 sd=0 mult=1 m=1
XM4 IL VP VDD VDD sky130_fd_pr__pfet_01v8 L=0.15 W=150 nf=10 ad='int((nf+1)/2) * W/nf * 0.29' as='int((nf+2)/2) * W/nf * 0.29'
+ pd='2*int((nf+1)/2) * (W/nf + 0.29)' ps='2*int((nf+2)/2) * (W/nf + 0.29)' nrd='0.29 / W' nrs='0.29 / W'
+ sa=0 sb=0 sd=0 mult=1 m=1
XM6 IL VP VDD VDD sky130_fd_pr__pfet_01v8 L=0.15 W=150 nf=10 ad='int((nf+1)/2) * W/nf * 0.29' as='int((nf+2)/2) * W/nf * 0.29'
+ pd='2*int((nf+1)/2) * (W/nf + 0.29)' ps='2*int((nf+2)/2) * (W/nf + 0.29)' nrd='0.29 / W' nrs='0.29 / W'
+ sa=0 sb=0 sd=0 mult=1 m=1
XM7 IL VP VDD VDD sky130_fd_pr__pfet_01v8 L=0.15 W=150 nf=10 ad='int((nf+1)/2) * W/nf * 0.29' as='int((nf+2)/2) * W/nf * 0.29'
+ pd='2*int((nf+1)/2) * (W/nf + 0.29)' ps='2*int((nf+2)/2) * (W/nf + 0.29)' nrd='0.29 / W' nrs='0.29 / W'
+ sa=0 sb=0 sd=0 mult=1 m=1
XM8 IL VP VDD VDD sky130_fd_pr__pfet_01v8 L=0.15 W=150 nf=10 ad='int((nf+1)/2) * W/nf * 0.29' as='int((nf+2)/2) * W/nf * 0.29'
+ pd='2*int((nf+1)/2) * (W/nf + 0.29)' ps='2*int((nf+2)/2) * (W/nf + 0.29)' nrd='0.29 / W' nrs='0.29 / W'
+ sa=0 sb=0 sd=0 mult=1 m=1
XM9 IL VP VDD VDD sky130_fd_pr__pfet_01v8 L=0.15 W=150 nf=10 ad='int((nf+1)/2) * W/nf * 0.29' as='int((nf+2)/2) * W/nf * 0.29'
+ pd='2*int((nf+1)/2) * (W/nf + 0.29)' ps='2*int((nf+2)/2) * (W/nf + 0.29)' nrd='0.29 / W' nrs='0.29 / W'
+ sa=0 sb=0 sd=0 mult=1 m=1
XM10 IL VP VDD VDD sky130_fd_pr__pfet_01v8 L=0.15 W=150 nf=10 ad='int((nf+1)/2) * W/nf * 0.29' as='int((nf+2)/2) * W/nf * 0.29'
+ pd='2*int((nf+1)/2) * (W/nf + 0.29)' ps='2*int((nf+2)/2) * (W/nf + 0.29)' nrd='0.29 / W' nrs='0.29 / W'
+ sa=0 sb=0 sd=0 mult=1 m=1
XM11 IL VP VDD VDD sky130_fd_pr__pfet_01v8 L=0.15 W=150 nf=10 ad='int((nf+1)/2) * W/nf * 0.29' as='int((nf+2)/2) * W/nf * 0.29'
+ pd='2*int((nf+1)/2) * (W/nf + 0.29)' ps='2*int((nf+2)/2) * (W/nf + 0.29)' nrd='0.29 / W' nrs='0.29 / W'
+ sa=0 sb=0 sd=0 mult=1 m=1
XM12 IL VP VDD VDD sky130_fd_pr__pfet_01v8 L=0.15 W=150 nf=10 ad='int((nf+1)/2) * W/nf * 0.29' as='int((nf+2)/2) * W/nf * 0.29'
+ pd='2*int((nf+1)/2) * (W/nf + 0.29)' ps='2*int((nf+2)/2) * (W/nf + 0.29)' nrd='0.29 / W' nrs='0.29 / W'
+ sa=0 sb=0 sd=0 mult=1 m=1
XM13 IL VP VDD VDD sky130_fd_pr__pfet_01v8 L=0.15 W=150 nf=10 ad='int((nf+1)/2) * W/nf * 0.29' as='int((nf+2)/2) * W/nf * 0.29'
+ pd='2*int((nf+1)/2) * (W/nf + 0.29)' ps='2*int((nf+2)/2) * (W/nf + 0.29)' nrd='0.29 / W' nrs='0.29 / W'
+ sa=0 sb=0 sd=0 mult=1 m=1
XM14 IL VP VDD VDD sky130_fd_pr__pfet_01v8 L=0.15 W=150 nf=10 ad='int((nf+1)/2) * W/nf * 0.29' as='int((nf+2)/2) * W/nf * 0.29'
+ pd='2*int((nf+1)/2) * (W/nf + 0.29)' ps='2*int((nf+2)/2) * (W/nf + 0.29)' nrd='0.29 / W' nrs='0.29 / W'
+ sa=0 sb=0 sd=0 mult=1 m=1
XM15 IL VP VDD VDD sky130_fd_pr__pfet_01v8 L=0.15 W=150 nf=10 ad='int((nf+1)/2) * W/nf * 0.29' as='int((nf+2)/2) * W/nf * 0.29'
+ pd='2*int((nf+1)/2) * (W/nf + 0.29)' ps='2*int((nf+2)/2) * (W/nf + 0.29)' nrd='0.29 / W' nrs='0.29 / W'
+ sa=0 sb=0 sd=0 mult=1 m=1
XM16 IL VP VDD VDD sky130_fd_pr__pfet_01v8 L=0.15 W=150 nf=10 ad='int((nf+1)/2) * W/nf * 0.29' as='int((nf+2)/2) * W/nf * 0.29'
+ pd='2*int((nf+1)/2) * (W/nf + 0.29)' ps='2*int((nf+2)/2) * (W/nf + 0.29)' nrd='0.29 / W' nrs='0.29 / W'
+ sa=0 sb=0 sd=0 mult=1 m=1
XM17 IL VP VDD VDD sky130_fd_pr__pfet_01v8 L=0.15 W=150 nf=10 ad='int((nf+1)/2) * W/nf * 0.29' as='int((nf+2)/2) * W/nf * 0.29'
+ pd='2*int((nf+1)/2) * (W/nf + 0.29)' ps='2*int((nf+2)/2) * (W/nf + 0.29)' nrd='0.29 / W' nrs='0.29 / W'
+ sa=0 sb=0 sd=0 mult=1 m=1
XM18 IL VP VDD VDD sky130_fd_pr__pfet_01v8 L=0.15 W=150 nf=10 ad='int((nf+1)/2) * W/nf * 0.29' as='int((nf+2)/2) * W/nf * 0.29'
+ pd='2*int((nf+1)/2) * (W/nf + 0.29)' ps='2*int((nf+2)/2) * (W/nf + 0.29)' nrd='0.29 / W' nrs='0.29 / W'
+ sa=0 sb=0 sd=0 mult=1 m=1
XM19 IL VP VDD VDD sky130_fd_pr__pfet_01v8 L=0.15 W=150 nf=10 ad='int((nf+1)/2) * W/nf * 0.29' as='int((nf+2)/2) * W/nf * 0.29'
+ pd='2*int((nf+1)/2) * (W/nf + 0.29)' ps='2*int((nf+2)/2) * (W/nf + 0.29)' nrd='0.29 / W' nrs='0.29 / W'
+ sa=0 sb=0 sd=0 mult=1 m=1
XM20 IL VP VDD VDD sky130_fd_pr__pfet_01v8 L=0.15 W=150 nf=10 ad='int((nf+1)/2) * W/nf * 0.29' as='int((nf+2)/2) * W/nf * 0.29'
+ pd='2*int((nf+1)/2) * (W/nf + 0.29)' ps='2*int((nf+2)/2) * (W/nf + 0.29)' nrd='0.29 / W' nrs='0.29 / W'
+ sa=0 sb=0 sd=0 mult=1 m=1
XM21 IL VP VDD VDD sky130_fd_pr__pfet_01v8 L=0.15 W=150 nf=10 ad='int((nf+1)/2) * W/nf * 0.29' as='int((nf+2)/2) * W/nf * 0.29'
+ pd='2*int((nf+1)/2) * (W/nf + 0.29)' ps='2*int((nf+2)/2) * (W/nf + 0.29)' nrd='0.29 / W' nrs='0.29 / W'
+ sa=0 sb=0 sd=0 mult=1 m=1
XM22 IL VP VDD VDD sky130_fd_pr__pfet_01v8 L=0.15 W=150 nf=10 ad='int((nf+1)/2) * W/nf * 0.29' as='int((nf+2)/2) * W/nf * 0.29'
+ pd='2*int((nf+1)/2) * (W/nf + 0.29)' ps='2*int((nf+2)/2) * (W/nf + 0.29)' nrd='0.29 / W' nrs='0.29 / W'
+ sa=0 sb=0 sd=0 mult=1 m=1
XM23 IL VP VDD VDD sky130_fd_pr__pfet_01v8 L=0.15 W=150 nf=10 ad='int((nf+1)/2) * W/nf * 0.29' as='int((nf+2)/2) * W/nf * 0.29'
+ pd='2*int((nf+1)/2) * (W/nf + 0.29)' ps='2*int((nf+2)/2) * (W/nf + 0.29)' nrd='0.29 / W' nrs='0.29 / W'
+ sa=0 sb=0 sd=0 mult=1 m=1
XM24 IL VP VDD VDD sky130_fd_pr__pfet_01v8 L=0.15 W=150 nf=10 ad='int((nf+1)/2) * W/nf * 0.29' as='int((nf+2)/2) * W/nf * 0.29'
+ pd='2*int((nf+1)/2) * (W/nf + 0.29)' ps='2*int((nf+2)/2) * (W/nf + 0.29)' nrd='0.29 / W' nrs='0.29 / W'
+ sa=0 sb=0 sd=0 mult=1 m=1
XM25 IL VP VDD VDD sky130_fd_pr__pfet_01v8 L=0.15 W=150 nf=10 ad='int((nf+1)/2) * W/nf * 0.29' as='int((nf+2)/2) * W/nf * 0.29'
+ pd='2*int((nf+1)/2) * (W/nf + 0.29)' ps='2*int((nf+2)/2) * (W/nf + 0.29)' nrd='0.29 / W' nrs='0.29 / W'
+ sa=0 sb=0 sd=0 mult=1 m=1
XM26 IL VP VDD VDD sky130_fd_pr__pfet_01v8 L=0.15 W=150 nf=10 ad='int((nf+1)/2) * W/nf * 0.29' as='int((nf+2)/2) * W/nf * 0.29'
+ pd='2*int((nf+1)/2) * (W/nf + 0.29)' ps='2*int((nf+2)/2) * (W/nf + 0.29)' nrd='0.29 / W' nrs='0.29 / W'
+ sa=0 sb=0 sd=0 mult=1 m=1
XM27 IL VP VDD VDD sky130_fd_pr__pfet_01v8 L=0.15 W=150 nf=10 ad='int((nf+1)/2) * W/nf * 0.29' as='int((nf+2)/2) * W/nf * 0.29'
+ pd='2*int((nf+1)/2) * (W/nf + 0.29)' ps='2*int((nf+2)/2) * (W/nf + 0.29)' nrd='0.29 / W' nrs='0.29 / W'
+ sa=0 sb=0 sd=0 mult=1 m=1
XM28 IL VP VDD VDD sky130_fd_pr__pfet_01v8 L=0.15 W=150 nf=10 ad='int((nf+1)/2) * W/nf * 0.29' as='int((nf+2)/2) * W/nf * 0.29'
+ pd='2*int((nf+1)/2) * (W/nf + 0.29)' ps='2*int((nf+2)/2) * (W/nf + 0.29)' nrd='0.29 / W' nrs='0.29 / W'
+ sa=0 sb=0 sd=0 mult=1 m=1
XM29 IL VP VDD VDD sky130_fd_pr__pfet_01v8 L=0.15 W=150 nf=10 ad='int((nf+1)/2) * W/nf * 0.29' as='int((nf+2)/2) * W/nf * 0.29'
+ pd='2*int((nf+1)/2) * (W/nf + 0.29)' ps='2*int((nf+2)/2) * (W/nf + 0.29)' nrd='0.29 / W' nrs='0.29 / W'
+ sa=0 sb=0 sd=0 mult=1 m=1
XM5 IL VP VDD VDD sky130_fd_pr__pfet_01v8 L=0.15 W=150 nf=10 ad='int((nf+1)/2) * W/nf * 0.29' as='int((nf+2)/2) * W/nf * 0.29'
+ pd='2*int((nf+1)/2) * (W/nf + 0.29)' ps='2*int((nf+2)/2) * (W/nf + 0.29)' nrd='0.29 / W' nrs='0.29 / W'
+ sa=0 sb=0 sd=0 mult=1 m=1
XM30 IL VP VDD VDD sky130_fd_pr__pfet_01v8 L=0.15 W=150 nf=10 ad='int((nf+1)/2) * W/nf * 0.29' as='int((nf+2)/2) * W/nf * 0.29'
+ pd='2*int((nf+1)/2) * (W/nf + 0.29)' ps='2*int((nf+2)/2) * (W/nf + 0.29)' nrd='0.29 / W' nrs='0.29 / W'
+ sa=0 sb=0 sd=0 mult=1 m=1
XM31 IL VP VDD VDD sky130_fd_pr__pfet_01v8 L=0.15 W=150 nf=10 ad='int((nf+1)/2) * W/nf * 0.29' as='int((nf+2)/2) * W/nf * 0.29'
+ pd='2*int((nf+1)/2) * (W/nf + 0.29)' ps='2*int((nf+2)/2) * (W/nf + 0.29)' nrd='0.29 / W' nrs='0.29 / W'
+ sa=0 sb=0 sd=0 mult=1 m=1
XM32 IL VP VDD VDD sky130_fd_pr__pfet_01v8 L=0.15 W=150 nf=10 ad='int((nf+1)/2) * W/nf * 0.29' as='int((nf+2)/2) * W/nf * 0.29'
+ pd='2*int((nf+1)/2) * (W/nf + 0.29)' ps='2*int((nf+2)/2) * (W/nf + 0.29)' nrd='0.29 / W' nrs='0.29 / W'
+ sa=0 sb=0 sd=0 mult=1 m=1
XM33 IL VP VDD VDD sky130_fd_pr__pfet_01v8 L=0.15 W=150 nf=10 ad='int((nf+1)/2) * W/nf * 0.29' as='int((nf+2)/2) * W/nf * 0.29'
+ pd='2*int((nf+1)/2) * (W/nf + 0.29)' ps='2*int((nf+2)/2) * (W/nf + 0.29)' nrd='0.29 / W' nrs='0.29 / W'
+ sa=0 sb=0 sd=0 mult=1 m=1
XM34 IL VP VDD VDD sky130_fd_pr__pfet_01v8 L=0.15 W=150 nf=10 ad='int((nf+1)/2) * W/nf * 0.29' as='int((nf+2)/2) * W/nf * 0.29'
+ pd='2*int((nf+1)/2) * (W/nf + 0.29)' ps='2*int((nf+2)/2) * (W/nf + 0.29)' nrd='0.29 / W' nrs='0.29 / W'
+ sa=0 sb=0 sd=0 mult=1 m=1
XM35 IL VP VDD VDD sky130_fd_pr__pfet_01v8 L=0.15 W=150 nf=10 ad='int((nf+1)/2) * W/nf * 0.29' as='int((nf+2)/2) * W/nf * 0.29'
+ pd='2*int((nf+1)/2) * (W/nf + 0.29)' ps='2*int((nf+2)/2) * (W/nf + 0.29)' nrd='0.29 / W' nrs='0.29 / W'
+ sa=0 sb=0 sd=0 mult=1 m=1
XM36 IL VP VDD VDD sky130_fd_pr__pfet_01v8 L=0.15 W=150 nf=10 ad='int((nf+1)/2) * W/nf * 0.29' as='int((nf+2)/2) * W/nf * 0.29'
+ pd='2*int((nf+1)/2) * (W/nf + 0.29)' ps='2*int((nf+2)/2) * (W/nf + 0.29)' nrd='0.29 / W' nrs='0.29 / W'
+ sa=0 sb=0 sd=0 mult=1 m=1
XM37 IL VP VDD VDD sky130_fd_pr__pfet_01v8 L=0.15 W=150 nf=10 ad='int((nf+1)/2) * W/nf * 0.29' as='int((nf+2)/2) * W/nf * 0.29'
+ pd='2*int((nf+1)/2) * (W/nf + 0.29)' ps='2*int((nf+2)/2) * (W/nf + 0.29)' nrd='0.29 / W' nrs='0.29 / W'
+ sa=0 sb=0 sd=0 mult=1 m=1
XM38 IL VP VDD VDD sky130_fd_pr__pfet_01v8 L=0.15 W=150 nf=10 ad='int((nf+1)/2) * W/nf * 0.29' as='int((nf+2)/2) * W/nf * 0.29'
+ pd='2*int((nf+1)/2) * (W/nf + 0.29)' ps='2*int((nf+2)/2) * (W/nf + 0.29)' nrd='0.29 / W' nrs='0.29 / W'
+ sa=0 sb=0 sd=0 mult=1 m=1
XM39 IL VP VDD VDD sky130_fd_pr__pfet_01v8 L=0.15 W=150 nf=10 ad='int((nf+1)/2) * W/nf * 0.29' as='int((nf+2)/2) * W/nf * 0.29'
+ pd='2*int((nf+1)/2) * (W/nf + 0.29)' ps='2*int((nf+2)/2) * (W/nf + 0.29)' nrd='0.29 / W' nrs='0.29 / W'
+ sa=0 sb=0 sd=0 mult=1 m=1
XM40 IL VP VDD VDD sky130_fd_pr__pfet_01v8 L=0.15 W=150 nf=10 ad='int((nf+1)/2) * W/nf * 0.29' as='int((nf+2)/2) * W/nf * 0.29'
+ pd='2*int((nf+1)/2) * (W/nf + 0.29)' ps='2*int((nf+2)/2) * (W/nf + 0.29)' nrd='0.29 / W' nrs='0.29 / W'
+ sa=0 sb=0 sd=0 mult=1 m=1
XM41 IL VP VDD VDD sky130_fd_pr__pfet_01v8 L=0.15 W=150 nf=10 ad='int((nf+1)/2) * W/nf * 0.29' as='int((nf+2)/2) * W/nf * 0.29'
+ pd='2*int((nf+1)/2) * (W/nf + 0.29)' ps='2*int((nf+2)/2) * (W/nf + 0.29)' nrd='0.29 / W' nrs='0.29 / W'
+ sa=0 sb=0 sd=0 mult=1 m=1
XM42 IL VP VDD VDD sky130_fd_pr__pfet_01v8 L=0.15 W=150 nf=10 ad='int((nf+1)/2) * W/nf * 0.29' as='int((nf+2)/2) * W/nf * 0.29'
+ pd='2*int((nf+1)/2) * (W/nf + 0.29)' ps='2*int((nf+2)/2) * (W/nf + 0.29)' nrd='0.29 / W' nrs='0.29 / W'
+ sa=0 sb=0 sd=0 mult=1 m=1
XM43 IL VP VDD VDD sky130_fd_pr__pfet_01v8 L=0.15 W=150 nf=10 ad='int((nf+1)/2) * W/nf * 0.29' as='int((nf+2)/2) * W/nf * 0.29'
+ pd='2*int((nf+1)/2) * (W/nf + 0.29)' ps='2*int((nf+2)/2) * (W/nf + 0.29)' nrd='0.29 / W' nrs='0.29 / W'
+ sa=0 sb=0 sd=0 mult=1 m=1
XM44 IL VP VDD VDD sky130_fd_pr__pfet_01v8 L=0.15 W=150 nf=10 ad='int((nf+1)/2) * W/nf * 0.29' as='int((nf+2)/2) * W/nf * 0.29'
+ pd='2*int((nf+1)/2) * (W/nf + 0.29)' ps='2*int((nf+2)/2) * (W/nf + 0.29)' nrd='0.29 / W' nrs='0.29 / W'
+ sa=0 sb=0 sd=0 mult=1 m=1
XM45 IL VP VDD VDD sky130_fd_pr__pfet_01v8 L=0.15 W=150 nf=10 ad='int((nf+1)/2) * W/nf * 0.29' as='int((nf+2)/2) * W/nf * 0.29'
+ pd='2*int((nf+1)/2) * (W/nf + 0.29)' ps='2*int((nf+2)/2) * (W/nf + 0.29)' nrd='0.29 / W' nrs='0.29 / W'
+ sa=0 sb=0 sd=0 mult=1 m=1
XM46 IL VP VDD VDD sky130_fd_pr__pfet_01v8 L=0.15 W=150 nf=10 ad='int((nf+1)/2) * W/nf * 0.29' as='int((nf+2)/2) * W/nf * 0.29'
+ pd='2*int((nf+1)/2) * (W/nf + 0.29)' ps='2*int((nf+2)/2) * (W/nf + 0.29)' nrd='0.29 / W' nrs='0.29 / W'
+ sa=0 sb=0 sd=0 mult=1 m=1
XM47 IL VP VDD VDD sky130_fd_pr__pfet_01v8 L=0.15 W=150 nf=10 ad='int((nf+1)/2) * W/nf * 0.29' as='int((nf+2)/2) * W/nf * 0.29'
+ pd='2*int((nf+1)/2) * (W/nf + 0.29)' ps='2*int((nf+2)/2) * (W/nf + 0.29)' nrd='0.29 / W' nrs='0.29 / W'
+ sa=0 sb=0 sd=0 mult=1 m=1
XM48 IL VP VDD VDD sky130_fd_pr__pfet_01v8 L=0.15 W=150 nf=10 ad='int((nf+1)/2) * W/nf * 0.29' as='int((nf+2)/2) * W/nf * 0.29'
+ pd='2*int((nf+1)/2) * (W/nf + 0.29)' ps='2*int((nf+2)/2) * (W/nf + 0.29)' nrd='0.29 / W' nrs='0.29 / W'
+ sa=0 sb=0 sd=0 mult=1 m=1
XM49 IL VP VDD VDD sky130_fd_pr__pfet_01v8 L=0.15 W=150 nf=10 ad='int((nf+1)/2) * W/nf * 0.29' as='int((nf+2)/2) * W/nf * 0.29'
+ pd='2*int((nf+1)/2) * (W/nf + 0.29)' ps='2*int((nf+2)/2) * (W/nf + 0.29)' nrd='0.29 / W' nrs='0.29 / W'
+ sa=0 sb=0 sd=0 mult=1 m=1
.ends


* expanding   symbol:  DC_DC_Converter/Power_Mosfet/N_Power_mosfets.sym # of pins=3
** sym_path:
*+ /home/shahid/Desktop/EDA/test/DC_DC_Converter_xschem/1-10-22_xschem/DC_DC_Converter_xschem/DC_DC_Converter/Power_Mosfet/N_Power_mosfets.sym
** sch_path:
*+ /home/shahid/Desktop/EDA/test/DC_DC_Converter_xschem/1-10-22_xschem/DC_DC_Converter_xschem/DC_DC_Converter/Power_Mosfet/N_Power_mosfets.sch
.subckt N_Power_mosfets  VSS VN IL
*.iopin VSS
*.iopin VN
*.iopin IL
XM50 IL VN VSS VSS sky130_fd_pr__nfet_01v8 L=0.15 W=100 nf=10 ad='int((nf+1)/2) * W/nf * 0.29' as='int((nf+2)/2) * W/nf * 0.29'
+ pd='2*int((nf+1)/2) * (W/nf + 0.29)' ps='2*int((nf+2)/2) * (W/nf + 0.29)' nrd='0.29 / W' nrs='0.29 / W'
+ sa=0 sb=0 sd=0 mult=1 m=1
XM1 IL VN VSS VSS sky130_fd_pr__nfet_01v8 L=0.15 W=100 nf=10 ad='int((nf+1)/2) * W/nf * 0.29' as='int((nf+2)/2) * W/nf * 0.29'
+ pd='2*int((nf+1)/2) * (W/nf + 0.29)' ps='2*int((nf+2)/2) * (W/nf + 0.29)' nrd='0.29 / W' nrs='0.29 / W'
+ sa=0 sb=0 sd=0 mult=1 m=1
XM2 IL VN VSS VSS sky130_fd_pr__nfet_01v8 L=0.15 W=100 nf=10 ad='int((nf+1)/2) * W/nf * 0.29' as='int((nf+2)/2) * W/nf * 0.29'
+ pd='2*int((nf+1)/2) * (W/nf + 0.29)' ps='2*int((nf+2)/2) * (W/nf + 0.29)' nrd='0.29 / W' nrs='0.29 / W'
+ sa=0 sb=0 sd=0 mult=1 m=1
XM3 IL VN VSS VSS sky130_fd_pr__nfet_01v8 L=0.15 W=100 nf=10 ad='int((nf+1)/2) * W/nf * 0.29' as='int((nf+2)/2) * W/nf * 0.29'
+ pd='2*int((nf+1)/2) * (W/nf + 0.29)' ps='2*int((nf+2)/2) * (W/nf + 0.29)' nrd='0.29 / W' nrs='0.29 / W'
+ sa=0 sb=0 sd=0 mult=1 m=1
XM4 IL VN VSS VSS sky130_fd_pr__nfet_01v8 L=0.15 W=100 nf=10 ad='int((nf+1)/2) * W/nf * 0.29' as='int((nf+2)/2) * W/nf * 0.29'
+ pd='2*int((nf+1)/2) * (W/nf + 0.29)' ps='2*int((nf+2)/2) * (W/nf + 0.29)' nrd='0.29 / W' nrs='0.29 / W'
+ sa=0 sb=0 sd=0 mult=1 m=1
XM5 IL VN VSS VSS sky130_fd_pr__nfet_01v8 L=0.15 W=100 nf=10 ad='int((nf+1)/2) * W/nf * 0.29' as='int((nf+2)/2) * W/nf * 0.29'
+ pd='2*int((nf+1)/2) * (W/nf + 0.29)' ps='2*int((nf+2)/2) * (W/nf + 0.29)' nrd='0.29 / W' nrs='0.29 / W'
+ sa=0 sb=0 sd=0 mult=1 m=1
XM6 IL VN VSS VSS sky130_fd_pr__nfet_01v8 L=0.15 W=100 nf=10 ad='int((nf+1)/2) * W/nf * 0.29' as='int((nf+2)/2) * W/nf * 0.29'
+ pd='2*int((nf+1)/2) * (W/nf + 0.29)' ps='2*int((nf+2)/2) * (W/nf + 0.29)' nrd='0.29 / W' nrs='0.29 / W'
+ sa=0 sb=0 sd=0 mult=1 m=1
XM7 IL VN VSS VSS sky130_fd_pr__nfet_01v8 L=0.15 W=100 nf=10 ad='int((nf+1)/2) * W/nf * 0.29' as='int((nf+2)/2) * W/nf * 0.29'
+ pd='2*int((nf+1)/2) * (W/nf + 0.29)' ps='2*int((nf+2)/2) * (W/nf + 0.29)' nrd='0.29 / W' nrs='0.29 / W'
+ sa=0 sb=0 sd=0 mult=1 m=1