* NGSPICE file created from TopA_flatten.ext - technology: sky130A

.subckt Top_1_PEX VDD VSS SAWTOOTH VREF IBIAS1 OUT1 IBIAS2 IL
X0 IL a_2189_6712# VDD VDD sky130_fd_pr__pfet_01v8 ad=1.21275e+15p pd=7.5117e+09u as=1.52741e+15p ps=9.75482e+09u w=1.5e+07u l=150000u
X1 a_5681_22118# a_2807_1109# VSS VSS sky130_fd_pr__nfet_01v8 ad=1.218e+11p pd=1.42e+06u as=3.56858e+14p ps=2.33496e+09u w=420000u l=150000u
X2 IL a_2189_6712# VDD VDD sky130_fd_pr__pfet_01v8 ad=0p pd=0u as=0p ps=0u w=1.5e+07u l=150000u
X3 VDD a_2189_6712# IL VDD sky130_fd_pr__pfet_01v8 ad=0p pd=0u as=0p ps=0u w=1.5e+07u l=150000u
X4 VSS a_11826_17500# a_10949_10879# VSS sky130_fd_pr__nfet_01v8 ad=0p pd=0u as=5.8e+13p ps=4.1218e+08u w=8e+06u l=900000u
X5 IL a_2189_6712# VDD VDD sky130_fd_pr__pfet_01v8 ad=0p pd=0u as=0p ps=0u w=1.5e+07u l=150000u
X6 a_10711_10879# IBIAS1 VDD VDD sky130_fd_pr__pfet_01v8 ad=6.96e+12p pd=6.54e+07u as=0p ps=0u w=800000u l=900000u
X7 VSS a_5991_6702# IL VSS sky130_fd_pr__nfet_01v8 ad=0p pd=0u as=2.64e+14p ps=1.6528e+09u w=1e+07u l=150000u
X8 IL a_5991_6702# VSS VSS sky130_fd_pr__nfet_01v8 ad=0p pd=0u as=0p ps=0u w=1e+07u l=150000u
X9 VDD a_2189_6712# IL VDD sky130_fd_pr__pfet_01v8 ad=0p pd=0u as=0p ps=0u w=1.5e+07u l=150000u
X10 a_4931_4248# a_2831_3719# a_4511_4248# VDD sky130_fd_pr__pfet_01v8 ad=2.494e+11p pd=2.88e+06u as=2.494e+11p ps=2.88e+06u w=430000u l=150000u
X11 VDD a_1901_18557# a_2189_6712# VDD sky130_fd_pr__pfet_01v8 ad=0p pd=0u as=3.48e+13p ps=2.458e+08u w=1.2e+07u l=150000u
X12 VDD a_2189_6712# IL VDD sky130_fd_pr__pfet_01v8 ad=0p pd=0u as=0p ps=0u w=1.5e+07u l=150000u
X13 VDD a_2189_6712# IL VDD sky130_fd_pr__pfet_01v8 ad=0p pd=0u as=0p ps=0u w=1.5e+07u l=150000u
X14 IL a_2189_6712# VDD VDD sky130_fd_pr__pfet_01v8 ad=0p pd=0u as=0p ps=0u w=1.5e+07u l=150000u
X15 VDD a_2189_6712# IL VDD sky130_fd_pr__pfet_01v8 ad=0p pd=0u as=0p ps=0u w=1.5e+07u l=150000u
X16 IL a_2189_6712# VDD VDD sky130_fd_pr__pfet_01v8 ad=0p pd=0u as=0p ps=0u w=1.5e+07u l=150000u
X17 IL a_2189_6712# VDD VDD sky130_fd_pr__pfet_01v8 ad=0p pd=0u as=0p ps=0u w=1.5e+07u l=150000u
X18 VDD a_2189_6712# IL VDD sky130_fd_pr__pfet_01v8 ad=0p pd=0u as=0p ps=0u w=1.5e+07u l=150000u
X19 VDD a_2189_6712# IL VDD sky130_fd_pr__pfet_01v8 ad=0p pd=0u as=0p ps=0u w=1.5e+07u l=150000u
X20 a_10769_10791# OUT1 VSS sky130_fd_pr__res_xhigh_po_0p35 l=4.59e+07u
X21 VDD a_2189_6712# IL VDD sky130_fd_pr__pfet_01v8 ad=0p pd=0u as=0p ps=0u w=1.5e+07u l=150000u
X22 IL a_2189_6712# VDD VDD sky130_fd_pr__pfet_01v8 ad=0p pd=0u as=0p ps=0u w=1.5e+07u l=150000u
X23 IL a_2189_6712# VDD VDD sky130_fd_pr__pfet_01v8 ad=0p pd=0u as=0p ps=0u w=1.5e+07u l=150000u
X24 IL a_2189_6712# VDD VDD sky130_fd_pr__pfet_01v8 ad=0p pd=0u as=0p ps=0u w=1.5e+07u l=150000u
X25 VSS a_5991_6702# IL VSS sky130_fd_pr__nfet_01v8 ad=0p pd=0u as=0p ps=0u w=1e+07u l=150000u
X26 IL a_5991_6702# VSS VSS sky130_fd_pr__nfet_01v8 ad=0p pd=0u as=0p ps=0u w=1e+07u l=150000u
X27 IL a_5991_6702# VSS VSS sky130_fd_pr__nfet_01v8 ad=0p pd=0u as=0p ps=0u w=1e+07u l=150000u
X28 VDD a_2189_6712# IL VDD sky130_fd_pr__pfet_01v8 ad=0p pd=0u as=0p ps=0u w=1.5e+07u l=150000u
X29 a_10711_10879# IBIAS1 VDD VDD sky130_fd_pr__pfet_01v8 ad=0p pd=0u as=0p ps=0u w=800000u l=900000u
X30 IL a_2189_6712# VDD VDD sky130_fd_pr__pfet_01v8 ad=0p pd=0u as=0p ps=0u w=1.5e+07u l=150000u
X31 VDD a_2189_6712# IL VDD sky130_fd_pr__pfet_01v8 ad=0p pd=0u as=0p ps=0u w=1.5e+07u l=150000u
X32 VDD a_5703_18547# a_5991_6702# VDD sky130_fd_pr__pfet_01v8 ad=0p pd=0u as=3.48e+13p ps=2.458e+08u w=1.2e+07u l=150000u
X33 VDD a_2189_6712# IL VDD sky130_fd_pr__pfet_01v8 ad=0p pd=0u as=0p ps=0u w=1.5e+07u l=150000u
X34 VSS a_5991_6702# IL VSS sky130_fd_pr__nfet_01v8 ad=0p pd=0u as=0p ps=0u w=1e+07u l=150000u
X35 a_2435_1206# a_2093_2981# VDD VDD sky130_fd_pr__pfet_01v8 ad=2.9e+11p pd=3.16e+06u as=0p ps=0u w=500000u l=150000u
X36 IL a_5991_6702# VSS VSS sky130_fd_pr__nfet_01v8 ad=0p pd=0u as=0p ps=0u w=1e+07u l=150000u
X37 IL a_2189_6712# VDD VDD sky130_fd_pr__pfet_01v8 ad=0p pd=0u as=0p ps=0u w=1.5e+07u l=150000u
X38 a_4091_3729# a_2831_3719# a_3671_3729# VSS sky130_fd_pr__nfet_01v8 ad=2.494e+11p pd=2.88e+06u as=2.494e+11p ps=2.88e+06u w=430000u l=150000u
X39 VDD a_2189_6712# IL VDD sky130_fd_pr__pfet_01v8 ad=0p pd=0u as=0p ps=0u w=1.5e+07u l=150000u
X40 VSS a_12692_11507# a_14220_10933# VSS sky130_fd_pr__nfet_01v8 ad=0p pd=0u as=1.392e+12p ps=1.308e+07u w=800000u l=900000u
X41 VDD a_2189_6712# IL VDD sky130_fd_pr__pfet_01v8 ad=0p pd=0u as=0p ps=0u w=1.5e+07u l=150000u
X42 VDD a_2189_6712# IL VDD sky130_fd_pr__pfet_01v8 ad=0p pd=0u as=0p ps=0u w=1.5e+07u l=150000u
X43 a_11508_10872# VREF a_10949_10879# VSS sky130_fd_pr__nfet_01v8 ad=2.32e+13p pd=1.6464e+08u as=0p ps=0u w=1e+07u l=900000u
X44 a_7907_1338# a_7051_1266# VSS VSS sky130_fd_pr__nfet_01v8 ad=2.9e+11p pd=2.58e+06u as=0p ps=0u w=1e+06u l=150000u
X45 VDD a_2189_6712# IL VDD sky130_fd_pr__pfet_01v8 ad=0p pd=0u as=0p ps=0u w=1.5e+07u l=150000u
X46 VDD a_2189_6712# IL VDD sky130_fd_pr__pfet_01v8 ad=0p pd=0u as=0p ps=0u w=1.5e+07u l=150000u
X47 IL a_2189_6712# VDD VDD sky130_fd_pr__pfet_01v8 ad=0p pd=0u as=0p ps=0u w=1.5e+07u l=150000u
X48 VSS a_5991_6702# IL VSS sky130_fd_pr__nfet_01v8 ad=0p pd=0u as=0p ps=0u w=1e+07u l=150000u
X49 IL a_5991_6702# VSS VSS sky130_fd_pr__nfet_01v8 ad=0p pd=0u as=0p ps=0u w=1e+07u l=150000u
X50 IL a_5991_6702# VSS VSS sky130_fd_pr__nfet_01v8 ad=0p pd=0u as=0p ps=0u w=1e+07u l=150000u
X51 a_2189_6712# a_1901_18557# VSS VSS sky130_fd_pr__nfet_01v8 ad=1.16e+13p pd=8.58e+07u as=0p ps=0u w=4e+06u l=150000u
X52 VDD a_2189_6712# IL VDD sky130_fd_pr__pfet_01v8 ad=0p pd=0u as=0p ps=0u w=1.5e+07u l=150000u
X53 IL a_5991_6702# VSS VSS sky130_fd_pr__nfet_01v8 ad=0p pd=0u as=0p ps=0u w=1e+07u l=150000u
X54 VDD a_2189_6712# IL VDD sky130_fd_pr__pfet_01v8 ad=0p pd=0u as=0p ps=0u w=1.5e+07u l=150000u
X55 IL a_5991_6702# VSS VSS sky130_fd_pr__nfet_01v8 ad=0p pd=0u as=0p ps=0u w=1e+07u l=150000u
X56 a_12750_12001# a_13334_16745# a_13334_16745# VSS sky130_fd_pr__nfet_01v8 ad=2.9e+12p pd=2.116e+07u as=1.45e+12p ps=1.058e+07u w=5e+06u l=900000u
X57 VDD a_2189_6712# IL VDD sky130_fd_pr__pfet_01v8 ad=0p pd=0u as=0p ps=0u w=1.5e+07u l=150000u
X58 a_12692_11507# a_12750_12001# a_11508_10872# VDD sky130_fd_pr__pfet_01v8 ad=3.48e+12p pd=3.27e+07u as=6.96e+12p ps=6.54e+07u w=800000u l=900000u
X59 VSS a_5991_6702# IL VSS sky130_fd_pr__nfet_01v8 ad=0p pd=0u as=0p ps=0u w=1e+07u l=150000u
X60 VDD IBIAS1 a_11508_10872# VDD sky130_fd_pr__pfet_01v8 ad=0p pd=0u as=0p ps=0u w=800000u l=900000u
X61 IL a_2189_6712# VDD VDD sky130_fd_pr__pfet_01v8 ad=0p pd=0u as=0p ps=0u w=1.5e+07u l=150000u
X62 IL a_2189_6712# VDD VDD sky130_fd_pr__pfet_01v8 ad=0p pd=0u as=0p ps=0u w=1.5e+07u l=150000u
X63 VDD a_2189_6712# IL VDD sky130_fd_pr__pfet_01v8 ad=0p pd=0u as=0p ps=0u w=1.5e+07u l=150000u
X64 a_6631_1785# a_4957_1270# a_6211_1785# VSS sky130_fd_pr__nfet_01v8 ad=2.494e+11p pd=2.88e+06u as=2.494e+11p ps=2.88e+06u w=430000u l=150000u
X65 IL a_2189_6712# VDD VDD sky130_fd_pr__pfet_01v8 ad=0p pd=0u as=0p ps=0u w=1.5e+07u l=150000u
X66 a_11508_10872# IBIAS1 VDD VDD sky130_fd_pr__pfet_01v8 ad=0p pd=0u as=0p ps=0u w=800000u l=900000u
X67 IL a_2189_6712# VDD VDD sky130_fd_pr__pfet_01v8 ad=0p pd=0u as=0p ps=0u w=1.5e+07u l=150000u
X68 IL a_2189_6712# VDD VDD sky130_fd_pr__pfet_01v8 ad=0p pd=0u as=0p ps=0u w=1.5e+07u l=150000u
X69 VDD a_2189_6712# IL VDD sky130_fd_pr__pfet_01v8 ad=0p pd=0u as=0p ps=0u w=1.5e+07u l=150000u
X70 a_11508_10872# a_12750_12001# a_12692_11507# VDD sky130_fd_pr__pfet_01v8 ad=0p pd=0u as=0p ps=0u w=800000u l=900000u
X71 VDD a_2189_6712# IL VDD sky130_fd_pr__pfet_01v8 ad=0p pd=0u as=0p ps=0u w=1.5e+07u l=150000u
X72 IL a_5991_6702# VSS VSS sky130_fd_pr__nfet_01v8 ad=0p pd=0u as=0p ps=0u w=1e+07u l=150000u
X73 VDD a_2189_6712# IL VDD sky130_fd_pr__pfet_01v8 ad=0p pd=0u as=0p ps=0u w=1.5e+07u l=150000u
X74 a_9712_6291# a_12750_12001# a_10711_10879# VDD sky130_fd_pr__pfet_01v8 ad=3.48e+12p pd=3.27e+07u as=0p ps=0u w=800000u l=900000u
X75 IL a_5991_6702# VSS VSS sky130_fd_pr__nfet_01v8 ad=0p pd=0u as=0p ps=0u w=1e+07u l=150000u
X76 VDD a_2189_6712# IL VDD sky130_fd_pr__pfet_01v8 ad=0p pd=0u as=0p ps=0u w=1.5e+07u l=150000u
X77 VSS a_5991_6702# IL VSS sky130_fd_pr__nfet_01v8 ad=0p pd=0u as=0p ps=0u w=1e+07u l=150000u
X78 VDD IBIAS1 a_10711_10879# VDD sky130_fd_pr__pfet_01v8 ad=0p pd=0u as=0p ps=0u w=800000u l=900000u
X79 VSS a_5991_6702# IL VSS sky130_fd_pr__nfet_01v8 ad=0p pd=0u as=0p ps=0u w=1e+07u l=150000u
X80 a_11826_17500# a_11814_14752# a_11814_14752# VSS sky130_fd_pr__nfet_01v8 ad=3.48e+12p pd=2.748e+07u as=1.392e+12p ps=1.308e+07u w=800000u l=900000u
X81 IL a_5991_6702# VSS VSS sky130_fd_pr__nfet_01v8 ad=0p pd=0u as=0p ps=0u w=1e+07u l=150000u
X82 IL a_2189_6712# VDD VDD sky130_fd_pr__pfet_01v8 ad=0p pd=0u as=0p ps=0u w=1.5e+07u l=150000u
X83 VDD a_2189_6712# IL VDD sky130_fd_pr__pfet_01v8 ad=0p pd=0u as=0p ps=0u w=1.5e+07u l=150000u
X84 IL a_2189_6712# VDD VDD sky130_fd_pr__pfet_01v8 ad=0p pd=0u as=0p ps=0u w=1.5e+07u l=150000u
X85 a_11508_10872# IBIAS1 VDD VDD sky130_fd_pr__pfet_01v8 ad=0p pd=0u as=0p ps=0u w=800000u l=900000u
X86 IL a_2189_6712# VDD VDD sky130_fd_pr__pfet_01v8 ad=0p pd=0u as=0p ps=0u w=1.5e+07u l=150000u
X87 VDD a_2189_6712# IL VDD sky130_fd_pr__pfet_01v8 ad=0p pd=0u as=0p ps=0u w=1.5e+07u l=150000u
X88 a_11508_10872# a_12750_12001# a_12692_11507# VDD sky130_fd_pr__pfet_01v8 ad=0p pd=0u as=0p ps=0u w=800000u l=900000u
X89 IL a_5991_6702# VSS VSS sky130_fd_pr__nfet_01v8 ad=0p pd=0u as=0p ps=0u w=1e+07u l=150000u
X90 VDD a_2189_6712# IL VDD sky130_fd_pr__pfet_01v8 ad=0p pd=0u as=0p ps=0u w=1.5e+07u l=150000u
X91 a_2189_6712# a_1901_18557# VSS VSS sky130_fd_pr__nfet_01v8 ad=0p pd=0u as=0p ps=0u w=4e+06u l=150000u
X92 VDD a_2189_6712# IL VDD sky130_fd_pr__pfet_01v8 ad=0p pd=0u as=0p ps=0u w=1.5e+07u l=150000u
X93 VSS a_5991_6702# IL VSS sky130_fd_pr__nfet_01v8 ad=0p pd=0u as=0p ps=0u w=1e+07u l=150000u
X94 VDD a_2189_6712# IL VDD sky130_fd_pr__pfet_01v8 ad=0p pd=0u as=0p ps=0u w=1.5e+07u l=150000u
X95 VDD a_2189_6712# IL VDD sky130_fd_pr__pfet_01v8 ad=0p pd=0u as=0p ps=0u w=1.5e+07u l=150000u
X96 VDD a_2189_6712# IL VDD sky130_fd_pr__pfet_01v8 ad=0p pd=0u as=0p ps=0u w=1.5e+07u l=150000u
X97 IL a_2189_6712# VDD VDD sky130_fd_pr__pfet_01v8 ad=0p pd=0u as=0p ps=0u w=1.5e+07u l=150000u
X98 IL a_2189_6712# VDD VDD sky130_fd_pr__pfet_01v8 ad=0p pd=0u as=0p ps=0u w=1.5e+07u l=150000u
X99 VDD IBIAS1 a_10711_10879# VDD sky130_fd_pr__pfet_01v8 ad=0p pd=0u as=0p ps=0u w=800000u l=900000u
X100 IL a_2189_6712# VDD VDD sky130_fd_pr__pfet_01v8 ad=0p pd=0u as=0p ps=0u w=1.5e+07u l=150000u
X101 IL a_2189_6712# VDD VDD sky130_fd_pr__pfet_01v8 ad=0p pd=0u as=0p ps=0u w=1.5e+07u l=150000u
X102 VDD a_2189_6712# IL VDD sky130_fd_pr__pfet_01v8 ad=0p pd=0u as=0p ps=0u w=1.5e+07u l=150000u
X103 IL a_2189_6712# VDD VDD sky130_fd_pr__pfet_01v8 ad=0p pd=0u as=0p ps=0u w=1.5e+07u l=150000u
X104 a_11508_10872# VREF a_10949_10879# VSS sky130_fd_pr__nfet_01v8 ad=0p pd=0u as=0p ps=0u w=1e+07u l=900000u
X105 a_5791_1785# a_4957_1270# a_5371_1785# VSS sky130_fd_pr__nfet_01v8 ad=2.494e+11p pd=2.88e+06u as=2.494e+11p ps=2.88e+06u w=430000u l=150000u
X106 a_10711_10879# a_12750_12001# a_9712_6291# VDD sky130_fd_pr__pfet_01v8 ad=0p pd=0u as=0p ps=0u w=800000u l=900000u
X107 VDD a_2189_6712# IL VDD sky130_fd_pr__pfet_01v8 ad=0p pd=0u as=0p ps=0u w=1.5e+07u l=150000u
X108 IL a_5991_6702# VSS VSS sky130_fd_pr__nfet_01v8 ad=0p pd=0u as=0p ps=0u w=1e+07u l=150000u
X109 VDD a_2189_6712# IL VDD sky130_fd_pr__pfet_01v8 ad=0p pd=0u as=0p ps=0u w=1.5e+07u l=150000u
X110 VDD a_2189_6712# IL VDD sky130_fd_pr__pfet_01v8 ad=0p pd=0u as=0p ps=0u w=1.5e+07u l=150000u
X111 IL a_2189_6712# VDD VDD sky130_fd_pr__pfet_01v8 ad=0p pd=0u as=0p ps=0u w=1.5e+07u l=150000u
X112 a_10711_10879# IBIAS1 VDD VDD sky130_fd_pr__pfet_01v8 ad=0p pd=0u as=0p ps=0u w=800000u l=900000u
X113 IL a_2189_6712# VDD VDD sky130_fd_pr__pfet_01v8 ad=0p pd=0u as=0p ps=0u w=1.5e+07u l=150000u
X114 VSS a_5991_6702# IL VSS sky130_fd_pr__nfet_01v8 ad=0p pd=0u as=0p ps=0u w=1e+07u l=150000u
X115 VSS a_5991_6702# IL VSS sky130_fd_pr__nfet_01v8 ad=0p pd=0u as=0p ps=0u w=1e+07u l=150000u
X116 VDD a_2189_6712# IL VDD sky130_fd_pr__pfet_01v8 ad=0p pd=0u as=0p ps=0u w=1.5e+07u l=150000u
X117 IL a_2189_6712# VDD VDD sky130_fd_pr__pfet_01v8 ad=0p pd=0u as=0p ps=0u w=1.5e+07u l=150000u
X118 VSS a_5991_6702# IL VSS sky130_fd_pr__nfet_01v8 ad=0p pd=0u as=0p ps=0u w=1e+07u l=150000u
X119 VSS a_5991_6702# IL VSS sky130_fd_pr__nfet_01v8 ad=0p pd=0u as=0p ps=0u w=1e+07u l=150000u
X120 VDD a_2189_6712# IL VDD sky130_fd_pr__pfet_01v8 ad=0p pd=0u as=0p ps=0u w=1.5e+07u l=150000u
X121 a_7021_4248# a_5351_3729# a_6601_4248# VDD sky130_fd_pr__pfet_01v8 ad=2.494e+11p pd=2.88e+06u as=2.494e+11p ps=2.88e+06u w=430000u l=150000u
X122 IL a_5991_6702# VSS VSS sky130_fd_pr__nfet_01v8 ad=0p pd=0u as=0p ps=0u w=1e+07u l=150000u
X123 IL a_5991_6702# VSS VSS sky130_fd_pr__nfet_01v8 ad=0p pd=0u as=0p ps=0u w=1e+07u l=150000u
X124 VSS a_5991_6702# IL VSS sky130_fd_pr__nfet_01v8 ad=0p pd=0u as=0p ps=0u w=1e+07u l=150000u
X125 VDD a_2189_6712# IL VDD sky130_fd_pr__pfet_01v8 ad=0p pd=0u as=0p ps=0u w=1.5e+07u l=150000u
X126 IL a_2189_6712# VDD VDD sky130_fd_pr__pfet_01v8 ad=0p pd=0u as=0p ps=0u w=1.5e+07u l=150000u
X127 a_4117_1789# a_2435_1755# a_3697_1789# VSS sky130_fd_pr__nfet_01v8 ad=2.494e+11p pd=2.88e+06u as=2.494e+11p ps=2.88e+06u w=430000u l=150000u
X128 a_7051_1266# a_4957_1270# a_6631_1266# VDD sky130_fd_pr__pfet_01v8 ad=1.247e+11p pd=1.44e+06u as=2.494e+11p ps=2.88e+06u w=430000u l=150000u
X129 VDD a_2189_6712# IL VDD sky130_fd_pr__pfet_01v8 ad=0p pd=0u as=0p ps=0u w=1.5e+07u l=150000u
X130 VDD a_2189_6712# IL VDD sky130_fd_pr__pfet_01v8 ad=0p pd=0u as=0p ps=0u w=1.5e+07u l=150000u
X131 a_5761_3729# a_5351_3729# VSS VSS sky130_fd_pr__nfet_01v8 ad=2.494e+11p pd=2.88e+06u as=0p ps=0u w=430000u l=150000u
X132 a_11814_14752# a_11814_14752# a_11826_17500# VSS sky130_fd_pr__nfet_01v8 ad=0p pd=0u as=0p ps=0u w=800000u l=900000u
X133 a_2831_3719# a_3203_3631# VSS VSS sky130_fd_pr__nfet_01v8 ad=2.9e+11p pd=3.16e+06u as=0p ps=0u w=500000u l=150000u
X134 a_5991_6702# a_5703_18547# VSS VSS sky130_fd_pr__nfet_01v8 ad=1.16e+13p pd=8.58e+07u as=0p ps=0u w=4e+06u l=150000u
X135 IL a_2189_6712# VDD VDD sky130_fd_pr__pfet_01v8 ad=0p pd=0u as=0p ps=0u w=1.5e+07u l=150000u
X136 IL a_2189_6712# VDD VDD sky130_fd_pr__pfet_01v8 ad=0p pd=0u as=0p ps=0u w=1.5e+07u l=150000u
X137 VDD a_2189_6712# IL VDD sky130_fd_pr__pfet_01v8 ad=0p pd=0u as=0p ps=0u w=1.5e+07u l=150000u
X138 IL a_5991_6702# VSS VSS sky130_fd_pr__nfet_01v8 ad=0p pd=0u as=0p ps=0u w=1e+07u l=150000u
X139 IL a_2189_6712# VDD VDD sky130_fd_pr__pfet_01v8 ad=0p pd=0u as=0p ps=0u w=1.5e+07u l=150000u
X140 IBIAS1 IBIAS1 VDD VDD sky130_fd_pr__pfet_01v8 ad=2.32e+12p pd=1.658e+07u as=0p ps=0u w=8e+06u l=900000u
X141 IL a_2189_6712# VDD VDD sky130_fd_pr__pfet_01v8 ad=0p pd=0u as=0p ps=0u w=1.5e+07u l=150000u
X142 VDD a_5703_18547# a_5991_6702# VDD sky130_fd_pr__pfet_01v8 ad=0p pd=0u as=0p ps=0u w=1.2e+07u l=150000u
X143 IL a_2189_6712# VDD VDD sky130_fd_pr__pfet_01v8 ad=0p pd=0u as=0p ps=0u w=1.5e+07u l=150000u
X144 VDD a_1901_18557# a_2189_6712# VDD sky130_fd_pr__pfet_01v8 ad=0p pd=0u as=0p ps=0u w=1.2e+07u l=150000u
X145 VSS a_5991_6702# IL VSS sky130_fd_pr__nfet_01v8 ad=0p pd=0u as=0p ps=0u w=1e+07u l=150000u
X146 VDD a_2189_6712# IL VDD sky130_fd_pr__pfet_01v8 ad=0p pd=0u as=0p ps=0u w=1.5e+07u l=150000u
X147 VDD a_2189_6712# IL VDD sky130_fd_pr__pfet_01v8 ad=0p pd=0u as=0p ps=0u w=1.5e+07u l=150000u
X148 a_10711_10879# a_12750_12001# a_9712_6291# VDD sky130_fd_pr__pfet_01v8 ad=0p pd=0u as=0p ps=0u w=800000u l=900000u
X149 VSS a_5991_6702# IL VSS sky130_fd_pr__nfet_01v8 ad=0p pd=0u as=0p ps=0u w=1e+07u l=150000u
X150 IL a_2189_6712# VDD VDD sky130_fd_pr__pfet_01v8 ad=0p pd=0u as=0p ps=0u w=1.5e+07u l=150000u
X151 IL a_2189_6712# VDD VDD sky130_fd_pr__pfet_01v8 ad=0p pd=0u as=0p ps=0u w=1.5e+07u l=150000u
X152 VDD IBIAS1 a_11508_10872# VDD sky130_fd_pr__pfet_01v8 ad=0p pd=0u as=0p ps=0u w=800000u l=900000u
X153 VDD a_2189_6712# IL VDD sky130_fd_pr__pfet_01v8 ad=0p pd=0u as=0p ps=0u w=1.5e+07u l=150000u
X154 VDD a_2189_6712# IL VDD sky130_fd_pr__pfet_01v8 ad=0p pd=0u as=0p ps=0u w=1.5e+07u l=150000u
X155 IL a_2189_6712# VDD VDD sky130_fd_pr__pfet_01v8 ad=0p pd=0u as=0p ps=0u w=1.5e+07u l=150000u
X156 IL a_2189_6712# VDD VDD sky130_fd_pr__pfet_01v8 ad=0p pd=0u as=0p ps=0u w=1.5e+07u l=150000u
X157 IL a_5991_6702# VSS VSS sky130_fd_pr__nfet_01v8 ad=0p pd=0u as=0p ps=0u w=1e+07u l=150000u
X158 a_11508_10872# IBIAS1 VDD VDD sky130_fd_pr__pfet_01v8 ad=0p pd=0u as=0p ps=0u w=800000u l=900000u
X159 VSS a_5991_6702# IL VSS sky130_fd_pr__nfet_01v8 ad=0p pd=0u as=0p ps=0u w=1e+07u l=150000u
X160 a_1901_18557# a_1839_22225# VDD VDD sky130_fd_pr__pfet_01v8 ad=3.48e+12p pd=2.458e+07u as=0p ps=0u w=1.2e+07u l=150000u
X161 a_11508_10872# VREF a_10949_10879# VSS sky130_fd_pr__nfet_01v8 ad=0p pd=0u as=0p ps=0u w=1e+07u l=900000u
X162 IL a_2189_6712# VDD VDD sky130_fd_pr__pfet_01v8 ad=0p pd=0u as=0p ps=0u w=1.5e+07u l=150000u
X163 a_8560_7818# a_8560_7818# VSS VSS sky130_fd_pr__nfet_01v8_lvt ad=2.9e+11p pd=2.58e+06u as=0p ps=0u w=1e+06u l=1e+06u
X164 IL a_2189_6712# VDD VDD sky130_fd_pr__pfet_01v8 ad=0p pd=0u as=0p ps=0u w=1.5e+07u l=150000u
X165 a_1195_24344# a_3203_3631# VDD VDD sky130_fd_pr__pfet_01v8 ad=8.7e+11p pd=6.58e+06u as=0p ps=0u w=3e+06u l=150000u
X166 a_11508_10872# IBIAS1 VDD VDD sky130_fd_pr__pfet_01v8 ad=0p pd=0u as=0p ps=0u w=800000u l=900000u
X167 VDD a_2189_6712# IL VDD sky130_fd_pr__pfet_01v8 ad=0p pd=0u as=0p ps=0u w=1.5e+07u l=150000u
X168 a_6211_1266# a_4957_1270# a_5791_1266# VDD sky130_fd_pr__pfet_01v8 ad=2.494e+11p pd=2.88e+06u as=2.494e+11p ps=2.88e+06u w=430000u l=150000u
X169 IL a_2189_6712# VDD VDD sky130_fd_pr__pfet_01v8 ad=0p pd=0u as=0p ps=0u w=1.5e+07u l=150000u
X170 VDD a_2189_6712# IL VDD sky130_fd_pr__pfet_01v8 ad=0p pd=0u as=0p ps=0u w=1.5e+07u l=150000u
X171 IL a_2189_6712# VDD VDD sky130_fd_pr__pfet_01v8 ad=0p pd=0u as=0p ps=0u w=1.5e+07u l=150000u
X172 a_9712_6291# a_12750_12001# a_10711_10879# VDD sky130_fd_pr__pfet_01v8 ad=0p pd=0u as=0p ps=0u w=800000u l=900000u
X173 VDD IBIAS1 a_10711_10879# VDD sky130_fd_pr__pfet_01v8 ad=0p pd=0u as=0p ps=0u w=800000u l=900000u
X174 IL a_2189_6712# VDD VDD sky130_fd_pr__pfet_01v8 ad=0p pd=0u as=0p ps=0u w=1.5e+07u l=150000u
X175 VDD a_2189_6712# IL VDD sky130_fd_pr__pfet_01v8 ad=0p pd=0u as=0p ps=0u w=1.5e+07u l=150000u
X176 a_17339_1632# a_26051_1314# VSS sky130_fd_pr__res_xhigh_po_0p35 l=4.14e+07u
X177 a_9712_6291# a_12750_12001# a_10711_10879# VDD sky130_fd_pr__pfet_01v8 ad=0p pd=0u as=0p ps=0u w=800000u l=900000u
X178 IL a_2189_6712# VDD VDD sky130_fd_pr__pfet_01v8 ad=0p pd=0u as=0p ps=0u w=1.5e+07u l=150000u
X179 IL a_2189_6712# VDD VDD sky130_fd_pr__pfet_01v8 ad=0p pd=0u as=0p ps=0u w=1.5e+07u l=150000u
X180 VSS a_5991_6702# IL VSS sky130_fd_pr__nfet_01v8 ad=0p pd=0u as=0p ps=0u w=1e+07u l=150000u
X181 VDD a_2189_6712# IL VDD sky130_fd_pr__pfet_01v8 ad=0p pd=0u as=0p ps=0u w=1.5e+07u l=150000u
X182 a_9712_6291# a_11814_14752# a_14220_10933# VSS sky130_fd_pr__nfet_01v8 ad=6.96e+11p pd=6.54e+06u as=0p ps=0u w=800000u l=900000u
X183 IL a_5991_6702# VSS VSS sky130_fd_pr__nfet_01v8 ad=0p pd=0u as=0p ps=0u w=1e+07u l=150000u
X184 IL a_5991_6702# VSS VSS sky130_fd_pr__nfet_01v8 ad=0p pd=0u as=0p ps=0u w=1e+07u l=150000u
X185 VDD a_2189_6712# IL VDD sky130_fd_pr__pfet_01v8 ad=0p pd=0u as=0p ps=0u w=1.5e+07u l=150000u
X186 VDD a_5703_18547# a_5991_6702# VDD sky130_fd_pr__pfet_01v8 ad=0p pd=0u as=0p ps=0u w=1.2e+07u l=150000u
X187 IL a_2189_6712# VDD VDD sky130_fd_pr__pfet_01v8 ad=0p pd=0u as=0p ps=0u w=1.5e+07u l=150000u
X188 IL a_2189_6712# VDD VDD sky130_fd_pr__pfet_01v8 ad=0p pd=0u as=0p ps=0u w=1.5e+07u l=150000u
X189 VDD a_2189_6712# IL VDD sky130_fd_pr__pfet_01v8 ad=0p pd=0u as=0p ps=0u w=1.5e+07u l=150000u
X190 a_11508_10872# IBIAS1 VDD VDD sky130_fd_pr__pfet_01v8 ad=0p pd=0u as=0p ps=0u w=800000u l=900000u
X191 IL a_2189_6712# VDD VDD sky130_fd_pr__pfet_01v8 ad=0p pd=0u as=0p ps=0u w=1.5e+07u l=150000u
X192 VDD a_2189_6712# IL VDD sky130_fd_pr__pfet_01v8 ad=0p pd=0u as=0p ps=0u w=1.5e+07u l=150000u
X193 VDD a_2189_6712# IL VDD sky130_fd_pr__pfet_01v8 ad=0p pd=0u as=0p ps=0u w=1.5e+07u l=150000u
X194 VDD a_2189_6712# IL VDD sky130_fd_pr__pfet_01v8 ad=0p pd=0u as=0p ps=0u w=1.5e+07u l=150000u
X195 VDD a_2189_6712# IL VDD sky130_fd_pr__pfet_01v8 ad=0p pd=0u as=0p ps=0u w=1.5e+07u l=150000u
X196 a_9712_6291# a_12750_12001# a_10711_10879# VDD sky130_fd_pr__pfet_01v8 ad=0p pd=0u as=0p ps=0u w=800000u l=900000u
X197 VDD a_2189_6712# IL VDD sky130_fd_pr__pfet_01v8 ad=0p pd=0u as=0p ps=0u w=1.5e+07u l=150000u
X198 IL a_2189_6712# VDD VDD sky130_fd_pr__pfet_01v8 ad=0p pd=0u as=0p ps=0u w=1.5e+07u l=150000u
X199 VDD IBIAS1 a_11508_10872# VDD sky130_fd_pr__pfet_01v8 ad=0p pd=0u as=0p ps=0u w=800000u l=900000u
X200 a_12692_11507# a_12750_12001# a_11508_10872# VDD sky130_fd_pr__pfet_01v8 ad=0p pd=0u as=0p ps=0u w=800000u l=900000u
X201 VDD IBIAS1 a_10711_10879# VDD sky130_fd_pr__pfet_01v8 ad=0p pd=0u as=0p ps=0u w=800000u l=900000u
X202 VDD IBIAS1 a_11508_10872# VDD sky130_fd_pr__pfet_01v8 ad=0p pd=0u as=0p ps=0u w=800000u l=900000u
X203 VDD a_2189_6712# IL VDD sky130_fd_pr__pfet_01v8 ad=0p pd=0u as=0p ps=0u w=1.5e+07u l=150000u
X204 VDD a_2189_6712# IL VDD sky130_fd_pr__pfet_01v8 ad=0p pd=0u as=0p ps=0u w=1.5e+07u l=150000u
X205 VDD a_2189_6712# IL VDD sky130_fd_pr__pfet_01v8 ad=0p pd=0u as=0p ps=0u w=1.5e+07u l=150000u
X206 VSS a_5991_6702# IL VSS sky130_fd_pr__nfet_01v8 ad=0p pd=0u as=0p ps=0u w=1e+07u l=150000u
X207 IL a_2189_6712# VDD VDD sky130_fd_pr__pfet_01v8 ad=0p pd=0u as=0p ps=0u w=1.5e+07u l=150000u
X208 IL a_5991_6702# VSS VSS sky130_fd_pr__nfet_01v8 ad=0p pd=0u as=0p ps=0u w=1e+07u l=150000u
X209 IL a_5991_6702# VSS VSS sky130_fd_pr__nfet_01v8 ad=0p pd=0u as=0p ps=0u w=1e+07u l=150000u
X210 VDD a_1901_18557# a_2189_6712# VDD sky130_fd_pr__pfet_01v8 ad=0p pd=0u as=0p ps=0u w=1.2e+07u l=150000u
X211 a_10711_10879# IBIAS1 VDD VDD sky130_fd_pr__pfet_01v8 ad=0p pd=0u as=0p ps=0u w=800000u l=900000u
X212 VDD a_2189_6712# IL VDD sky130_fd_pr__pfet_01v8 ad=0p pd=0u as=0p ps=0u w=1.5e+07u l=150000u
X213 IL a_2189_6712# VDD VDD sky130_fd_pr__pfet_01v8 ad=0p pd=0u as=0p ps=0u w=1.5e+07u l=150000u
X214 a_10711_10879# IBIAS1 VDD VDD sky130_fd_pr__pfet_01v8 ad=0p pd=0u as=0p ps=0u w=800000u l=900000u
X215 IL a_2189_6712# VDD VDD sky130_fd_pr__pfet_01v8 ad=0p pd=0u as=0p ps=0u w=1.5e+07u l=150000u
X216 VDD a_2189_6712# IL VDD sky130_fd_pr__pfet_01v8 ad=0p pd=0u as=0p ps=0u w=1.5e+07u l=150000u
X217 VDD a_1901_18557# a_2189_6712# VDD sky130_fd_pr__pfet_01v8 ad=0p pd=0u as=0p ps=0u w=1.2e+07u l=150000u
X218 a_2435_1755# a_2807_1109# VSS VSS sky130_fd_pr__nfet_01v8 ad=2.9e+11p pd=3.16e+06u as=0p ps=0u w=500000u l=150000u
X219 a_2189_6712# a_1901_18557# VSS VSS sky130_fd_pr__nfet_01v8 ad=0p pd=0u as=0p ps=0u w=4e+06u l=150000u
X220 a_12692_11507# a_12750_12001# a_11508_10872# VDD sky130_fd_pr__pfet_01v8 ad=0p pd=0u as=0p ps=0u w=800000u l=900000u
X221 VDD IBIAS1 a_11508_10872# VDD sky130_fd_pr__pfet_01v8 ad=0p pd=0u as=0p ps=0u w=800000u l=900000u
X222 IL a_2189_6712# VDD VDD sky130_fd_pr__pfet_01v8 ad=0p pd=0u as=0p ps=0u w=1.5e+07u l=150000u
X223 a_8788_6571# a_8560_7818# VSS VSS sky130_fd_pr__nfet_01v8_lvt ad=2.9e+11p pd=2.58e+06u as=0p ps=0u w=1e+06u l=1e+06u
X224 IL a_5991_6702# VSS VSS sky130_fd_pr__nfet_01v8 ad=0p pd=0u as=0p ps=0u w=1e+07u l=150000u
X225 IL a_2189_6712# VDD VDD sky130_fd_pr__pfet_01v8 ad=0p pd=0u as=0p ps=0u w=1.5e+07u l=150000u
X226 VDD a_2189_6712# IL VDD sky130_fd_pr__pfet_01v8 ad=0p pd=0u as=0p ps=0u w=1.5e+07u l=150000u
X227 VDD a_2189_6712# IL VDD sky130_fd_pr__pfet_01v8 ad=0p pd=0u as=0p ps=0u w=1.5e+07u l=150000u
X228 a_8339_3147# a_7441_3729# VSS VSS sky130_fd_pr__nfet_01v8 ad=2.9e+11p pd=2.58e+06u as=0p ps=0u w=1e+06u l=150000u
X229 VSS a_5991_6702# IL VSS sky130_fd_pr__nfet_01v8 ad=0p pd=0u as=0p ps=0u w=1e+07u l=150000u
X230 VDD a_2189_6712# IL VDD sky130_fd_pr__pfet_01v8 ad=0p pd=0u as=0p ps=0u w=1.5e+07u l=150000u
X231 a_10711_10879# IBIAS1 VDD VDD sky130_fd_pr__pfet_01v8 ad=0p pd=0u as=0p ps=0u w=800000u l=900000u
X232 IL a_2189_6712# VDD VDD sky130_fd_pr__pfet_01v8 ad=0p pd=0u as=0p ps=0u w=1.5e+07u l=150000u
X233 IL a_2189_6712# VDD VDD sky130_fd_pr__pfet_01v8 ad=0p pd=0u as=0p ps=0u w=1.5e+07u l=150000u
X234 VSS a_5991_6702# IL VSS sky130_fd_pr__nfet_01v8 ad=0p pd=0u as=0p ps=0u w=1e+07u l=150000u
X235 VDD a_2189_6712# IL VDD sky130_fd_pr__pfet_01v8 ad=0p pd=0u as=0p ps=0u w=1.5e+07u l=150000u
X236 a_12692_11507# a_12750_12001# a_11508_10872# VDD sky130_fd_pr__pfet_01v8 ad=0p pd=0u as=0p ps=0u w=800000u l=900000u
X237 VDD a_5681_22118# a_5641_22215# VDD sky130_fd_pr__pfet_01v8 ad=0p pd=0u as=3.48e+11p ps=2.98e+06u w=1.2e+06u l=150000u
X238 VDD a_2189_6712# IL VDD sky130_fd_pr__pfet_01v8 ad=0p pd=0u as=0p ps=0u w=1.5e+07u l=150000u
X239 a_1901_18557# a_1839_22225# VSS VSS sky130_fd_pr__nfet_01v8 ad=1.16e+12p pd=8.58e+06u as=0p ps=0u w=4e+06u l=150000u
X240 VDD a_2189_6712# IL VDD sky130_fd_pr__pfet_01v8 ad=0p pd=0u as=0p ps=0u w=1.5e+07u l=150000u
X241 VSS a_12692_11507# a_14220_10933# VSS sky130_fd_pr__nfet_01v8 ad=0p pd=0u as=0p ps=0u w=800000u l=900000u
X242 IL a_2189_6712# VDD VDD sky130_fd_pr__pfet_01v8 ad=0p pd=0u as=0p ps=0u w=1.5e+07u l=150000u
X243 a_3671_3729# a_2831_3719# VSS VSS sky130_fd_pr__nfet_01v8 ad=0p pd=0u as=0p ps=0u w=430000u l=150000u
X244 VDD a_2189_6712# IL VDD sky130_fd_pr__pfet_01v8 ad=0p pd=0u as=0p ps=0u w=1.5e+07u l=150000u
X245 VDD a_2189_6712# IL VDD sky130_fd_pr__pfet_01v8 ad=0p pd=0u as=0p ps=0u w=1.5e+07u l=150000u
X246 IL a_2189_6712# VDD VDD sky130_fd_pr__pfet_01v8 ad=0p pd=0u as=0p ps=0u w=1.5e+07u l=150000u
X247 VDD a_8618_7721# a_8560_7818# VDD sky130_fd_pr__pfet_01v8_lvt ad=0p pd=0u as=8.7e+11p ps=6.58e+06u w=3e+06u l=500000u
X248 a_6181_4248# a_5351_3729# a_5761_4248# VDD sky130_fd_pr__pfet_01v8 ad=2.494e+11p pd=2.88e+06u as=2.494e+11p ps=2.88e+06u w=430000u l=150000u
X249 IL a_2189_6712# VDD VDD sky130_fd_pr__pfet_01v8 ad=0p pd=0u as=0p ps=0u w=1.5e+07u l=150000u
X250 VDD a_2189_6712# IL VDD sky130_fd_pr__pfet_01v8 ad=0p pd=0u as=0p ps=0u w=1.5e+07u l=150000u
X251 VDD a_2189_6712# IL VDD sky130_fd_pr__pfet_01v8 ad=0p pd=0u as=0p ps=0u w=1.5e+07u l=150000u
X252 VSS a_5991_6702# IL VSS sky130_fd_pr__nfet_01v8 ad=0p pd=0u as=0p ps=0u w=1e+07u l=150000u
X253 VSS a_5991_6702# IL VSS sky130_fd_pr__nfet_01v8 ad=0p pd=0u as=0p ps=0u w=1e+07u l=150000u
D0 VSS a_1195_24344# sky130_fd_pr__diode_pw2nd_05v5 pj=1.8e+06u area=2.025e+11p
X254 VDD a_2189_6712# IL VDD sky130_fd_pr__pfet_01v8 ad=0p pd=0u as=0p ps=0u w=1.5e+07u l=150000u
X255 VDD a_2189_6712# IL VDD sky130_fd_pr__pfet_01v8 ad=0p pd=0u as=0p ps=0u w=1.5e+07u l=150000u
X256 IL a_2189_6712# VDD VDD sky130_fd_pr__pfet_01v8 ad=0p pd=0u as=0p ps=0u w=1.5e+07u l=150000u
X257 VDD a_2189_6712# IL VDD sky130_fd_pr__pfet_01v8 ad=0p pd=0u as=0p ps=0u w=1.5e+07u l=150000u
X258 VDD a_2189_6712# IL VDD sky130_fd_pr__pfet_01v8 ad=0p pd=0u as=0p ps=0u w=1.5e+07u l=150000u
X259 a_12692_11507# a_12750_12001# a_11508_10872# VDD sky130_fd_pr__pfet_01v8 ad=0p pd=0u as=0p ps=0u w=800000u l=900000u
X260 VSS a_5991_6702# IL VSS sky130_fd_pr__nfet_01v8 ad=0p pd=0u as=0p ps=0u w=1e+07u l=150000u
X261 IL a_2189_6712# VDD VDD sky130_fd_pr__pfet_01v8 ad=0p pd=0u as=0p ps=0u w=1.5e+07u l=150000u
X262 a_12692_11507# a_12750_12001# a_11508_10872# VDD sky130_fd_pr__pfet_01v8 ad=0p pd=0u as=0p ps=0u w=800000u l=900000u
X263 VDD a_2189_6712# IL VDD sky130_fd_pr__pfet_01v8 ad=0p pd=0u as=0p ps=0u w=1.5e+07u l=150000u
X264 a_7441_3729# a_5351_3729# a_7021_3729# VSS sky130_fd_pr__nfet_01v8 ad=1.247e+11p pd=1.44e+06u as=2.494e+11p ps=2.88e+06u w=430000u l=150000u
X265 VDD a_2189_6712# IL VDD sky130_fd_pr__pfet_01v8 ad=0p pd=0u as=0p ps=0u w=1.5e+07u l=150000u
X266 a_2189_6712# a_1901_18557# VSS VSS sky130_fd_pr__nfet_01v8 ad=0p pd=0u as=0p ps=0u w=4e+06u l=150000u
X267 IL a_2189_6712# VDD VDD sky130_fd_pr__pfet_01v8 ad=0p pd=0u as=0p ps=0u w=1.5e+07u l=150000u
X268 a_17339_2268# a_26051_2586# VSS sky130_fd_pr__res_xhigh_po_0p35 l=4.14e+07u
X269 IL a_2189_6712# VDD VDD sky130_fd_pr__pfet_01v8 ad=0p pd=0u as=0p ps=0u w=1.5e+07u l=150000u
X270 a_11508_10872# IBIAS1 VDD VDD sky130_fd_pr__pfet_01v8 ad=0p pd=0u as=0p ps=0u w=800000u l=900000u
X271 a_5991_6702# a_5703_18547# VSS VSS sky130_fd_pr__nfet_01v8 ad=0p pd=0u as=0p ps=0u w=4e+06u l=150000u
X272 VDD a_2189_6712# IL VDD sky130_fd_pr__pfet_01v8 ad=0p pd=0u as=0p ps=0u w=1.5e+07u l=150000u
X273 VDD a_2189_6712# IL VDD sky130_fd_pr__pfet_01v8 ad=0p pd=0u as=0p ps=0u w=1.5e+07u l=150000u
X274 IL a_2189_6712# VDD VDD sky130_fd_pr__pfet_01v8 ad=0p pd=0u as=0p ps=0u w=1.5e+07u l=150000u
X275 VDD a_2189_6712# IL VDD sky130_fd_pr__pfet_01v8 ad=0p pd=0u as=0p ps=0u w=1.5e+07u l=150000u
X276 IL a_2189_6712# VDD VDD sky130_fd_pr__pfet_01v8 ad=0p pd=0u as=0p ps=0u w=1.5e+07u l=150000u
X277 a_5703_18547# a_5641_22215# VSS VSS sky130_fd_pr__nfet_01v8 ad=1.16e+12p pd=8.58e+06u as=0p ps=0u w=4e+06u l=150000u
X278 IL a_5991_6702# VSS VSS sky130_fd_pr__nfet_01v8 ad=0p pd=0u as=0p ps=0u w=1e+07u l=150000u
X279 VDD a_2189_6712# IL VDD sky130_fd_pr__pfet_01v8 ad=0p pd=0u as=0p ps=0u w=1.5e+07u l=150000u
X280 a_10711_10879# a_12750_12001# a_9712_6291# VDD sky130_fd_pr__pfet_01v8 ad=0p pd=0u as=0p ps=0u w=800000u l=900000u
X281 VSS a_5991_6702# IL VSS sky130_fd_pr__nfet_01v8 ad=0p pd=0u as=0p ps=0u w=1e+07u l=150000u
X282 IL a_2189_6712# VDD VDD sky130_fd_pr__pfet_01v8 ad=0p pd=0u as=0p ps=0u w=1.5e+07u l=150000u
X283 a_4537_1789# a_2435_1755# a_4117_1789# VSS sky130_fd_pr__nfet_01v8 ad=2.494e+11p pd=2.88e+06u as=0p ps=0u w=430000u l=150000u
X284 IL a_2189_6712# VDD VDD sky130_fd_pr__pfet_01v8 ad=0p pd=0u as=0p ps=0u w=1.5e+07u l=150000u
X285 a_9712_6291# a_11814_14752# a_14220_10933# VSS sky130_fd_pr__nfet_01v8 ad=0p pd=0u as=0p ps=0u w=800000u l=900000u