* NGSPICE file created from user_analog_project_wrapper.ext - technology: sky130A

.subckt TopF_flatten VH VL VREF SAWTOOTH ENABLE IBIAS1 IBIAS2 IBIAS3 IBIAS4 IL OUT
+ VSS VDD
X0 VDD a_7566_10753# IL VDD sky130_fd_pr__pfet_01v8 ad=1.64874e+15p pd=1.0707e+10u as=1.21275e+15p ps=7.5117e+09u w=1.5e+07u l=150000u
X1 VDD a_7566_10753# IL VDD sky130_fd_pr__pfet_01v8 ad=0p pd=0u as=0p ps=0u w=1.5e+07u l=150000u
X2 a_10308_7770# a_8208_7760# a_9888_7770# VSS sky130_fd_pr__nfet_01v8 ad=2.494e+11p pd=2.88e+06u as=2.494e+11p ps=2.88e+06u w=430000u l=150000u
X3 IL a_7566_10753# VDD VDD sky130_fd_pr__pfet_01v8 ad=0p pd=0u as=0p ps=0u w=1.5e+07u l=150000u
X4 IL a_7566_10753# VDD VDD sky130_fd_pr__pfet_01v8 ad=0p pd=0u as=0p ps=0u w=1.5e+07u l=150000u
X5 a_71548_27766# a_70581_28066# a_71558_28295# VDD sky130_fd_pr__pfet_01v8 ad=6.96e+11p pd=7.12e+06u as=1.392e+12p ps=1.424e+07u w=600000u l=150000u
X6 a_71488_11498# a_70521_11798# VSS VSS sky130_fd_pr__nfet_01v8 ad=2.436e+11p pd=2.84e+06u as=3.98891e+14p ps=2.7043e+09u w=420000u l=150000u
X7 VSS a_11368_10743# IL VSS sky130_fd_pr__nfet_01v8 ad=0p pd=0u as=2.64e+14p ps=1.6528e+09u w=1e+07u l=150000u
X8 IL a_7566_10753# VDD VDD sky130_fd_pr__pfet_01v8 ad=0p pd=0u as=0p ps=0u w=1.5e+07u l=150000u
X9 VDD IBIAS1 a_16885_14913# VDD sky130_fd_pr__pfet_01v8 ad=0p pd=0u as=6.96e+12p ps=6.54e+07u w=800000u l=900000u
X10 IL a_11368_10743# VSS VSS sky130_fd_pr__nfet_01v8 ad=0p pd=0u as=0p ps=0u w=1e+07u l=150000u
X11 VDD a_11080_22588# a_11368_10743# VDD sky130_fd_pr__pfet_01v8 ad=0p pd=0u as=3.48e+13p ps=2.458e+08u w=1.2e+07u l=150000u
X12 VDD a_7566_10753# IL VDD sky130_fd_pr__pfet_01v8 ad=0p pd=0u as=0p ps=0u w=1.5e+07u l=150000u
X13 IL a_7566_10753# VDD VDD sky130_fd_pr__pfet_01v8 ad=0p pd=0u as=0p ps=0u w=1.5e+07u l=150000u
X14 a_58342_34568# a_57378_34684# VDD VDD sky130_fd_pr__pfet_01v8 ad=8.7e+11p pd=7.16e+06u as=0p ps=0u w=1.5e+06u l=500000u
X15 VDD a_7566_10753# IL VDD sky130_fd_pr__pfet_01v8 ad=0p pd=0u as=0p ps=0u w=1.5e+07u l=150000u
X16 VDD a_67969_25304# a_67360_25304# VDD sky130_fd_pr__pfet_01v8 ad=0p pd=0u as=3.48e+11p ps=2.98e+06u w=1.2e+06u l=150000u
X17 a_67999_10406# a_67352_10406# VDD VDD sky130_fd_pr__pfet_01v8 ad=3.48e+11p pd=2.98e+06u as=0p ps=0u w=1.2e+06u l=150000u
X18 a_73476_9136# a_73428_9048# a_73486_9665# VDD sky130_fd_pr__pfet_01v8 ad=6.96e+11p pd=7.12e+06u as=1.392e+12p ps=1.424e+07u w=600000u l=150000u
X19 VSS a_67328_11784# a_67288_11881# VSS sky130_fd_pr__nfet_01v8 ad=0p pd=0u as=1.218e+11p ps=1.42e+06u w=420000u l=150000u
X20 a_18065_14978# a_17191_18793# a_18069_15548# VSS sky130_fd_pr__nfet_01v8 ad=1.392e+12p pd=1.308e+07u as=6.96e+11p ps=6.54e+06u w=800000u l=900000u
X21 VDD a_59358_35924# a_59220_29000# VDD sky130_fd_pr__pfet_01v8 ad=0p pd=0u as=7.25e+11p ps=5.58e+06u w=2.5e+06u l=1e+06u
X22 OUT a_83423_6631# a_83741_35364# VDD sky130_fd_pr__pfet_01v8 ad=9.9e+12p pd=6.66e+07u as=1.077e+13p ps=7.318e+07u w=3e+06u l=150000u
X23 VDD a_7566_10753# IL VDD sky130_fd_pr__pfet_01v8 ad=0p pd=0u as=0p ps=0u w=1.5e+07u l=150000u
X24 IL a_11368_10743# VSS VSS sky130_fd_pr__nfet_01v8 ad=0p pd=0u as=0p ps=0u w=1e+07u l=150000u
X25 a_69961_10368# a_69314_10368# VSS VSS sky130_fd_pr__nfet_01v8 ad=1.218e+11p pd=1.42e+06u as=0p ps=0u w=420000u l=150000u
X26 a_83423_6631# a_83135_18476# VSS VSS sky130_fd_pr__nfet_01v8 ad=1.16e+13p pd=8.58e+07u as=0p ps=0u w=4e+06u l=150000u
X27 a_18065_14978# a_18069_15548# VSS VSS sky130_fd_pr__nfet_01v8 ad=0p pd=0u as=0p ps=0u w=800000u l=900000u
X28 a_73376_30186# a_72394_30919# a_73386_30715# VDD sky130_fd_pr__pfet_01v8 ad=6.96e+11p pd=7.12e+06u as=1.392e+12p ps=1.424e+07u w=600000u l=150000u
X29 VDD a_67388_28052# a_67348_28149# VDD sky130_fd_pr__pfet_01v8 ad=0p pd=0u as=3.48e+11p ps=2.98e+06u w=1.2e+06u l=150000u
D0 VSS a_74306_9665# sky130_fd_pr__diode_pw2nd_05v5 pj=1.8e+06u area=2.025e+11p
X30 VDD a_58288_33530# a_58288_33530# VDD sky130_fd_pr__pfet_01v8 ad=0p pd=0u as=8.7e+11p ps=7.16e+06u w=1.5e+06u l=500000u
X31 VDD a_7566_10753# IL VDD sky130_fd_pr__pfet_01v8 ad=0p pd=0u as=0p ps=0u w=1.5e+07u l=150000u
X32 VDD a_68641_28050# a_67997_28052# VDD sky130_fd_pr__pfet_01v8 ad=0p pd=0u as=3.48e+11p ps=2.98e+06u w=1.2e+06u l=150000u
X33 a_73382_27879# a_72378_28295# VDD VDD sky130_fd_pr__pfet_01v8 ad=1.392e+12p pd=1.424e+07u as=0p ps=0u w=600000u l=150000u
X34 IL a_11368_10743# VSS VSS sky130_fd_pr__nfet_01v8 ad=0p pd=0u as=0p ps=0u w=1e+07u l=150000u
X35 VSS a_11368_10743# IL VSS sky130_fd_pr__nfet_01v8 ad=0p pd=0u as=0p ps=0u w=1e+07u l=150000u
X36 VDD a_7278_22598# a_7566_10753# VDD sky130_fd_pr__pfet_01v8 ad=0p pd=0u as=3.48e+13p ps=2.458e+08u w=1.2e+07u l=150000u
X37 VSS a_17203_21541# a_16326_14920# VSS sky130_fd_pr__nfet_01v8 ad=0p pd=0u as=5.8e+13p ps=4.1218e+08u w=8e+06u l=900000u
X38 IL a_7566_10753# VDD VDD sky130_fd_pr__pfet_01v8 ad=0p pd=0u as=0p ps=0u w=1.5e+07u l=150000u
X39 a_11368_10743# a_11080_22588# VSS VSS sky130_fd_pr__nfet_01v8 ad=1.16e+13p pd=8.58e+07u as=0p ps=0u w=4e+06u l=150000u
X40 VDD a_7566_10753# IL VDD sky130_fd_pr__pfet_01v8 ad=0p pd=0u as=0p ps=0u w=1.5e+07u l=150000u
X41 VDD a_7566_10753# IL VDD sky130_fd_pr__pfet_01v8 ad=0p pd=0u as=0p ps=0u w=1.5e+07u l=150000u
X42 VDD a_7566_10753# IL VDD sky130_fd_pr__pfet_01v8 ad=0p pd=0u as=0p ps=0u w=1.5e+07u l=150000u
X43 VDD a_7566_10753# IL VDD sky130_fd_pr__pfet_01v8 ad=0p pd=0u as=0p ps=0u w=1.5e+07u l=150000u
X44 VSS a_57410_29069# a_73536_25404# VSS sky130_fd_pr__nfet_01v8 ad=0p pd=0u as=2.436e+11p ps=2.84e+06u w=420000u l=150000u
X45 a_73316_13918# a_72334_14651# a_73326_14447# VDD sky130_fd_pr__pfet_01v8 ad=6.96e+11p pd=7.12e+06u as=1.392e+12p ps=1.424e+07u w=600000u l=150000u
X46 VDD a_57324_33514# a_57260_32780# VDD sky130_fd_pr__pfet_01v8 ad=0p pd=0u as=2.9e+11p ps=2.58e+06u w=1e+06u l=500000u
X47 a_74206_30715# a_73376_30186# VDD VDD sky130_fd_pr__pfet_01v8 ad=3.48e+11p pd=3.56e+06u as=0p ps=0u w=600000u l=150000u
X48 VSS a_59220_29000# a_58860_28280# VSS sky130_fd_pr__nfet_01v8 ad=0p pd=0u as=4.872e+11p ps=5.68e+06u w=420000u l=150000u
X49 a_16326_14920# a_16146_14832# a_16088_14920# VSS sky130_fd_pr__nfet_01v8 ad=0p pd=0u as=2.32e+13p ps=1.6464e+08u w=1e+07u l=900000u
X50 IL a_7566_10753# VDD VDD sky130_fd_pr__pfet_01v8 ad=0p pd=0u as=0p ps=0u w=1.5e+07u l=150000u
X51 a_22935_6062# a_31647_5744# VSS sky130_fd_pr__res_xhigh_po w=350000u l=4.14e+07u
X52 IL a_7566_10753# VDD VDD sky130_fd_pr__pfet_01v8 ad=0p pd=0u as=0p ps=0u w=1.5e+07u l=150000u
X53 a_67440_29422# a_57410_29069# VSS VSS sky130_fd_pr__nfet_01v8 ad=1.218e+11p pd=1.42e+06u as=0p ps=0u w=420000u l=150000u
X54 a_74202_28591# a_73372_29512# VSS VSS sky130_fd_pr__nfet_01v8 ad=1.218e+11p pd=1.42e+06u as=0p ps=0u w=420000u l=150000u
X55 a_16885_14913# IBIAS1 VDD VDD sky130_fd_pr__pfet_01v8 ad=0p pd=0u as=0p ps=0u w=800000u l=900000u
X56 VSS a_11368_10743# IL VSS sky130_fd_pr__nfet_01v8 ad=0p pd=0u as=0p ps=0u w=1e+07u l=150000u
X57 VDD a_83135_18476# a_83423_6631# VDD sky130_fd_pr__pfet_01v8 ad=0p pd=0u as=3.48e+13p ps=2.458e+08u w=1.2e+07u l=150000u
X58 IL a_11368_10743# VSS VSS sky130_fd_pr__nfet_01v8 ad=0p pd=0u as=0p ps=0u w=1e+07u l=150000u
X59 VDD a_7566_10753# IL VDD sky130_fd_pr__pfet_01v8 ad=0p pd=0u as=0p ps=0u w=1.5e+07u l=150000u
X60 VDD a_7566_10753# IL VDD sky130_fd_pr__pfet_01v8 ad=0p pd=0u as=0p ps=0u w=1.5e+07u l=150000u
X61 VDD a_69871_8998# a_69262_8998# VDD sky130_fd_pr__pfet_01v8 ad=0p pd=0u as=3.48e+11p ps=2.98e+06u w=1.2e+06u l=150000u
X62 a_15089_10332# a_18127_16042# a_16088_14920# VDD sky130_fd_pr__pfet_01v8 ad=3.48e+12p pd=3.27e+07u as=6.96e+12p ps=6.54e+07u w=800000u l=900000u
X63 a_83135_18476# a_83073_22144# VDD VDD sky130_fd_pr__pfet_01v8 ad=3.48e+12p pd=2.458e+07u as=0p ps=0u w=1.2e+07u l=150000u
X64 VDD a_7566_10753# IL VDD sky130_fd_pr__pfet_01v8 ad=0p pd=0u as=0p ps=0u w=1.5e+07u l=150000u
X65 VDD a_11080_22588# a_11368_10743# VDD sky130_fd_pr__pfet_01v8 ad=0p pd=0u as=0p ps=0u w=1.2e+07u l=150000u
X66 a_18069_15548# a_18127_16042# a_16885_14913# VDD sky130_fd_pr__pfet_01v8 ad=3.48e+12p pd=3.27e+07u as=0p ps=0u w=800000u l=900000u
X67 IL a_7566_10753# VDD VDD sky130_fd_pr__pfet_01v8 ad=0p pd=0u as=0p ps=0u w=1.5e+07u l=150000u
X68 IL a_7566_10753# VDD VDD sky130_fd_pr__pfet_01v8 ad=0p pd=0u as=0p ps=0u w=1.5e+07u l=150000u
X69 a_57410_29069# a_56500_28250# VDD VDD sky130_fd_pr__pfet_01v8 ad=3.48e+11p pd=3.56e+06u as=0p ps=0u w=600000u l=150000u
X70 VDD a_7566_10753# IL VDD sky130_fd_pr__pfet_01v8 ad=0p pd=0u as=0p ps=0u w=1.5e+07u l=150000u
X71 a_83113_22047# a_82318_34546# VSS VSS sky130_fd_pr__nfet_01v8 ad=1.218e+11p pd=1.42e+06u as=0p ps=0u w=420000u l=150000u
X72 IL a_11368_10743# VSS VSS sky130_fd_pr__nfet_01v8 ad=0p pd=0u as=0p ps=0u w=1e+07u l=150000u
X73 a_16088_14920# IBIAS1 VDD VDD sky130_fd_pr__pfet_01v8 ad=0p pd=0u as=0p ps=0u w=800000u l=900000u
X74 IL a_11368_10743# VSS VSS sky130_fd_pr__nfet_01v8 ad=0p pd=0u as=0p ps=0u w=1e+07u l=150000u
X75 a_9468_8289# a_8208_7760# a_9048_8289# VDD sky130_fd_pr__pfet_01v8 ad=2.494e+11p pd=2.88e+06u as=2.494e+11p ps=2.88e+06u w=430000u l=150000u
X76 IL a_7566_10753# VDD VDD sky130_fd_pr__pfet_01v8 ad=0p pd=0u as=0p ps=0u w=1.5e+07u l=150000u
X77 VSS a_68581_11782# a_67937_11784# VSS sky130_fd_pr__nfet_01v8 ad=0p pd=0u as=1.218e+11p ps=1.42e+06u w=420000u l=150000u
X78 VSS a_11368_10743# IL VSS sky130_fd_pr__nfet_01v8 ad=0p pd=0u as=0p ps=0u w=1e+07u l=150000u
X79 a_68581_11782# a_68027_13154# VDD VDD sky130_fd_pr__pfet_01v8 ad=3.48e+11p pd=2.98e+06u as=0p ps=0u w=1.2e+06u l=150000u
X80 VSS a_68027_13154# a_71508_16246# VSS sky130_fd_pr__nfet_01v8 ad=0p pd=0u as=2.436e+11p ps=2.84e+06u w=420000u l=150000u
X81 VSS a_17203_21541# a_16326_14920# VSS sky130_fd_pr__nfet_01v8 ad=0p pd=0u as=0p ps=0u w=8e+06u l=900000u
X82 IBIAS4 OUT a_57324_33514# VSS sky130_fd_pr__nfet_01v8 ad=2.9e+12p pd=2.116e+07u as=1.45e+12p ps=1.058e+07u w=5e+06u l=1e+06u
X83 a_74306_9665# a_73476_9136# VDD VDD sky130_fd_pr__pfet_01v8 ad=3.48e+11p pd=3.56e+06u as=0p ps=0u w=600000u l=150000u
X84 a_7470_7022# a_14165_10612# VSS VSS sky130_fd_pr__nfet_01v8_lvt ad=2.9e+11p pd=2.58e+06u as=0p ps=0u w=1e+06u l=500000u
X85 VSS a_11058_26159# a_11018_26256# VSS sky130_fd_pr__nfet_01v8 ad=0p pd=0u as=1.218e+11p ps=1.42e+06u w=420000u l=150000u
X86 IL a_11368_10743# VSS VSS sky130_fd_pr__nfet_01v8 ad=0p pd=0u as=0p ps=0u w=1e+07u l=150000u
X87 a_10308_8289# a_8208_7760# a_9888_8289# VDD sky130_fd_pr__pfet_01v8 ad=2.494e+11p pd=2.88e+06u as=2.494e+11p ps=2.88e+06u w=430000u l=150000u
X88 a_15089_10332# a_18127_16042# a_16088_14920# VDD sky130_fd_pr__pfet_01v8 ad=0p pd=0u as=0p ps=0u w=800000u l=900000u
X89 IL a_7566_10753# VDD VDD sky130_fd_pr__pfet_01v8 ad=0p pd=0u as=0p ps=0u w=1.5e+07u l=150000u
X90 IL a_7566_10753# VDD VDD sky130_fd_pr__pfet_01v8 ad=0p pd=0u as=0p ps=0u w=1.5e+07u l=150000u
X91 a_74366_25933# a_73536_25404# VSS VSS sky130_fd_pr__nfet_01v8 ad=1.218e+11p pd=1.42e+06u as=0p ps=0u w=420000u l=150000u
X92 VDD a_83113_22047# a_83073_22144# VDD sky130_fd_pr__pfet_01v8 ad=0p pd=0u as=3.48e+11p ps=2.98e+06u w=1.2e+06u l=150000u
X93 VDD IBIAS1 a_16885_14913# VDD sky130_fd_pr__pfet_01v8 ad=0p pd=0u as=0p ps=0u w=800000u l=900000u
X94 a_18069_15548# a_18127_16042# a_16885_14913# VDD sky130_fd_pr__pfet_01v8 ad=0p pd=0u as=0p ps=0u w=800000u l=900000u
X95 VSS a_11368_10743# IL VSS sky130_fd_pr__nfet_01v8 ad=0p pd=0u as=0p ps=0u w=1e+07u l=150000u
X96 a_73322_11611# a_72318_12027# VDD VDD sky130_fd_pr__pfet_01v8 ad=1.392e+12p pd=1.424e+07u as=0p ps=0u w=600000u l=150000u
X97 VDD a_7566_10753# IL VDD sky130_fd_pr__pfet_01v8 ad=0p pd=0u as=0p ps=0u w=1.5e+07u l=150000u
X98 IL a_7566_10753# VDD VDD sky130_fd_pr__pfet_01v8 ad=0p pd=0u as=0p ps=0u w=1.5e+07u l=150000u
X99 VSS a_69322_25266# a_71548_27766# VSS sky130_fd_pr__nfet_01v8 ad=0p pd=0u as=2.436e+11p ps=2.84e+06u w=420000u l=150000u
X100 VDD a_7566_10753# IL VDD sky130_fd_pr__pfet_01v8 ad=0p pd=0u as=0p ps=0u w=1.5e+07u l=150000u
X101 VDD a_11080_22588# a_11368_10743# VDD sky130_fd_pr__pfet_01v8 ad=0p pd=0u as=0p ps=0u w=1.2e+07u l=150000u
X102 a_68059_26674# a_67412_26674# VSS VSS sky130_fd_pr__nfet_01v8 ad=1.218e+11p pd=1.42e+06u as=0p ps=0u w=420000u l=150000u
X103 IL a_11368_10743# VSS VSS sky130_fd_pr__nfet_01v8 ad=0p pd=0u as=0p ps=0u w=1e+07u l=150000u
X104 a_16088_14920# IBIAS1 VDD VDD sky130_fd_pr__pfet_01v8 ad=0p pd=0u as=0p ps=0u w=800000u l=900000u
X105 a_72314_9903# a_71484_10824# VSS VSS sky130_fd_pr__nfet_01v8 ad=1.218e+11p pd=1.42e+06u as=0p ps=0u w=420000u l=150000u
X106 a_16088_14920# a_18127_16042# a_15089_10332# VDD sky130_fd_pr__pfet_01v8 ad=0p pd=0u as=0p ps=0u w=800000u l=900000u
X107 a_16088_14920# a_18127_16042# a_15089_10332# VDD sky130_fd_pr__pfet_01v8 ad=0p pd=0u as=0p ps=0u w=800000u l=900000u
X108 VDD a_7566_10753# IL VDD sky130_fd_pr__pfet_01v8 ad=0p pd=0u as=0p ps=0u w=1.5e+07u l=150000u
X109 IL a_7566_10753# VDD VDD sky130_fd_pr__pfet_01v8 ad=0p pd=0u as=0p ps=0u w=1.5e+07u l=150000u
X110 IL a_7566_10753# VDD VDD sky130_fd_pr__pfet_01v8 ad=0p pd=0u as=0p ps=0u w=1.5e+07u l=150000u
X111 IL a_11368_10743# VSS VSS sky130_fd_pr__nfet_01v8 ad=0p pd=0u as=0p ps=0u w=1e+07u l=150000u
X112 a_74306_9665# a_73476_9136# VDD VDD sky130_fd_pr__pfet_01v8 ad=0p pd=0u as=0p ps=0u w=600000u l=150000u
X113 a_16885_14913# IBIAS1 VDD VDD sky130_fd_pr__pfet_01v8 ad=0p pd=0u as=0p ps=0u w=800000u l=900000u
X114 a_16088_14920# IBIAS1 VDD VDD sky130_fd_pr__pfet_01v8 ad=0p pd=0u as=0p ps=0u w=800000u l=900000u
X115 a_16088_14920# IBIAS1 VDD VDD sky130_fd_pr__pfet_01v8 ad=0p pd=0u as=0p ps=0u w=800000u l=900000u
X116 a_16885_14913# a_18127_16042# a_18069_15548# VDD sky130_fd_pr__pfet_01v8 ad=0p pd=0u as=0p ps=0u w=800000u l=900000u
X117 VDD a_59304_32292# a_56948_28970# VDD sky130_fd_pr__pfet_01v8 ad=0p pd=0u as=7.25e+11p ps=5.58e+06u w=2.5e+06u l=1e+06u
X118 VSS a_69262_8998# a_69222_9095# VSS sky130_fd_pr__nfet_01v8 ad=0p pd=0u as=1.218e+11p ps=1.42e+06u w=420000u l=150000u
X119 a_16885_14913# VREF a_16326_14920# VSS sky130_fd_pr__nfet_01v8 ad=2.32e+13p pd=1.6464e+08u as=0p ps=0u w=1e+07u l=900000u
X120 a_74142_12323# a_73312_13244# VDD VDD sky130_fd_pr__pfet_01v8 ad=3.48e+11p pd=3.56e+06u as=0p ps=0u w=600000u l=150000u
X121 IL a_7566_10753# VDD VDD sky130_fd_pr__pfet_01v8 ad=0p pd=0u as=0p ps=0u w=1.5e+07u l=150000u
X122 a_75006_28974# a_74202_28591# a_75016_29503# VDD sky130_fd_pr__pfet_01v8 ad=6.96e+11p pd=7.12e+06u as=1.392e+12p ps=1.424e+07u w=600000u l=150000u
X123 VSS a_67999_10406# a_71504_15572# VSS sky130_fd_pr__nfet_01v8 ad=0p pd=0u as=2.436e+11p ps=2.84e+06u w=420000u l=150000u
X124 VDD a_7566_10753# IL VDD sky130_fd_pr__pfet_01v8 ad=0p pd=0u as=0p ps=0u w=1.5e+07u l=150000u
X125 a_14961_11760# a_13995_11762# VDD VDD sky130_fd_pr__pfet_01v8_lvt ad=1.74e+12p pd=1.316e+07u as=0p ps=0u w=3e+06u l=500000u
X126 VSS a_18069_15548# a_18065_14978# VSS sky130_fd_pr__nfet_01v8 ad=0p pd=0u as=0p ps=0u w=800000u l=900000u
X127 VDD a_7566_10753# IL VDD sky130_fd_pr__pfet_01v8 ad=0p pd=0u as=0p ps=0u w=1.5e+07u l=150000u
X128 IL a_7566_10753# VDD VDD sky130_fd_pr__pfet_01v8 ad=0p pd=0u as=0p ps=0u w=1.5e+07u l=150000u
X129 a_15089_10332# a_18127_16042# a_16088_14920# VDD sky130_fd_pr__pfet_01v8 ad=0p pd=0u as=0p ps=0u w=800000u l=900000u
X130 a_58860_28280# ENABLE a_58772_28280# VSS sky130_fd_pr__nfet_01v8 ad=0p pd=0u as=2.436e+11p ps=2.84e+06u w=420000u l=150000u
X131 a_73372_29512# a_72374_26171# VSS VSS sky130_fd_pr__nfet_01v8 ad=2.436e+11p pd=2.84e+06u as=0p ps=0u w=420000u l=150000u
X132 VDD IBIAS1 a_16088_14920# VDD sky130_fd_pr__pfet_01v8 ad=0p pd=0u as=0p ps=0u w=800000u l=900000u
X133 IL a_7566_10753# VDD VDD sky130_fd_pr__pfet_01v8 ad=0p pd=0u as=0p ps=0u w=1.5e+07u l=150000u
X134 VDD a_7566_10753# IL VDD sky130_fd_pr__pfet_01v8 ad=0p pd=0u as=0p ps=0u w=1.5e+07u l=150000u
X135 IL a_11368_10743# VSS VSS sky130_fd_pr__nfet_01v8 ad=0p pd=0u as=0p ps=0u w=1e+07u l=150000u
X136 IL a_7566_10753# VDD VDD sky130_fd_pr__pfet_01v8 ad=0p pd=0u as=0p ps=0u w=1.5e+07u l=150000u
X137 a_72338_16775# a_71508_16246# VSS VSS sky130_fd_pr__nfet_01v8 ad=1.218e+11p pd=1.42e+06u as=0p ps=0u w=420000u l=150000u
X138 VDD a_7566_10753# IL VDD sky130_fd_pr__pfet_01v8 ad=0p pd=0u as=0p ps=0u w=1.5e+07u l=150000u
X139 IL a_7566_10753# VDD VDD sky130_fd_pr__pfet_01v8 ad=0p pd=0u as=0p ps=0u w=1.5e+07u l=150000u
X140 IL a_7566_10753# VDD VDD sky130_fd_pr__pfet_01v8 ad=0p pd=0u as=0p ps=0u w=1.5e+07u l=150000u
X141 VSS a_72338_16775# a_73316_13918# VSS sky130_fd_pr__nfet_01v8 ad=0p pd=0u as=2.436e+11p ps=2.84e+06u w=420000u l=150000u
X142 a_13937_11859# a_13937_11859# VSS VSS sky130_fd_pr__nfet_01v8_lvt ad=2.9e+11p pd=2.58e+06u as=0p ps=0u w=1e+06u l=1e+06u
X143 VDD a_67328_11784# a_67288_11881# VDD sky130_fd_pr__pfet_01v8 ad=0p pd=0u as=3.48e+11p ps=2.98e+06u w=1.2e+06u l=150000u
X144 a_16088_14920# IBIAS1 VDD VDD sky130_fd_pr__pfet_01v8 ad=0p pd=0u as=0p ps=0u w=800000u l=900000u
X145 a_16088_14920# a_18127_16042# a_15089_10332# VDD sky130_fd_pr__pfet_01v8 ad=0p pd=0u as=0p ps=0u w=800000u l=900000u
X146 IL a_7566_10753# VDD VDD sky130_fd_pr__pfet_01v8 ad=0p pd=0u as=0p ps=0u w=1.5e+07u l=150000u
X147 VDD a_7566_10753# IL VDD sky130_fd_pr__pfet_01v8 ad=0p pd=0u as=0p ps=0u w=1.5e+07u l=150000u
X148 VSS a_11368_10743# IL VSS sky130_fd_pr__nfet_01v8 ad=0p pd=0u as=0p ps=0u w=1e+07u l=150000u
X149 IL a_11368_10743# VSS VSS sky130_fd_pr__nfet_01v8 ad=0p pd=0u as=0p ps=0u w=1e+07u l=150000u
X150 IL a_7566_10753# VDD VDD sky130_fd_pr__pfet_01v8 ad=0p pd=0u as=0p ps=0u w=1.5e+07u l=150000u
X151 IL a_7566_10753# VDD VDD sky130_fd_pr__pfet_01v8 ad=0p pd=0u as=0p ps=0u w=1.5e+07u l=150000u
X152 VDD a_7566_10753# IL VDD sky130_fd_pr__pfet_01v8 ad=0p pd=0u as=0p ps=0u w=1.5e+07u l=150000u
X153 a_16885_14913# IBIAS1 VDD VDD sky130_fd_pr__pfet_01v8 ad=0p pd=0u as=0p ps=0u w=800000u l=900000u
X154 a_71488_11498# a_70521_11798# a_71498_12027# VDD sky130_fd_pr__pfet_01v8 ad=6.96e+11p pd=7.12e+06u as=1.392e+12p ps=1.424e+07u w=600000u l=150000u
X155 a_16885_14913# a_18127_16042# a_18069_15548# VDD sky130_fd_pr__pfet_01v8 ad=0p pd=0u as=0p ps=0u w=800000u l=900000u
X156 a_11978_7770# a_10728_7770# a_11558_7770# VSS sky130_fd_pr__nfet_01v8 ad=2.494e+11p pd=2.88e+06u as=2.494e+11p ps=2.88e+06u w=430000u l=150000u
X157 IL a_7566_10753# VDD VDD sky130_fd_pr__pfet_01v8 ad=0p pd=0u as=0p ps=0u w=1.5e+07u l=150000u
X158 IL a_7566_10753# VDD VDD sky130_fd_pr__pfet_01v8 ad=0p pd=0u as=0p ps=0u w=1.5e+07u l=150000u
X159 VDD a_7566_10753# IL VDD sky130_fd_pr__pfet_01v8 ad=0p pd=0u as=0p ps=0u w=1.5e+07u l=150000u
X160 IL a_7566_10753# VDD VDD sky130_fd_pr__pfet_01v8 ad=0p pd=0u as=0p ps=0u w=1.5e+07u l=150000u
X161 a_72378_28295# a_71548_27766# VSS VSS sky130_fd_pr__nfet_01v8 ad=1.218e+11p pd=1.42e+06u as=0p ps=0u w=420000u l=150000u
X162 a_9494_5830# a_7812_5796# a_9074_5830# VSS sky130_fd_pr__nfet_01v8 ad=2.494e+11p pd=2.88e+06u as=2.494e+11p ps=2.88e+06u w=430000u l=150000u
X163 IL a_11368_10743# VSS VSS sky130_fd_pr__nfet_01v8 ad=0p pd=0u as=0p ps=0u w=1e+07u l=150000u
X164 a_68641_28050# a_68087_29422# VSS VSS sky130_fd_pr__nfet_01v8 ad=1.218e+11p pd=1.42e+06u as=0p ps=0u w=420000u l=150000u
X165 IL a_7566_10753# VDD VDD sky130_fd_pr__pfet_01v8 ad=0p pd=0u as=0p ps=0u w=1.5e+07u l=150000u
X166 VDD a_7566_10753# IL VDD sky130_fd_pr__pfet_01v8 ad=0p pd=0u as=0p ps=0u w=1.5e+07u l=150000u
X167 a_15089_10332# a_18127_16042# a_16088_14920# VDD sky130_fd_pr__pfet_01v8 ad=0p pd=0u as=0p ps=0u w=800000u l=900000u
X168 IL a_11368_10743# VSS VSS sky130_fd_pr__nfet_01v8 ad=0p pd=0u as=0p ps=0u w=1e+07u l=150000u
X169 a_11588_5826# a_10334_5311# a_11168_5826# VSS sky130_fd_pr__nfet_01v8 ad=2.494e+11p pd=2.88e+06u as=2.494e+11p ps=2.88e+06u w=430000u l=150000u
X170 VDD a_7566_10753# IL VDD sky130_fd_pr__pfet_01v8 ad=0p pd=0u as=0p ps=0u w=1.5e+07u l=150000u
X171 IL a_7566_10753# VDD VDD sky130_fd_pr__pfet_01v8 ad=0p pd=0u as=0p ps=0u w=1.5e+07u l=150000u
X172 VDD a_69328_28068# a_69288_28165# VDD sky130_fd_pr__pfet_01v8 ad=0p pd=0u as=3.48e+11p ps=2.98e+06u w=1.2e+06u l=150000u
X173 VSS a_11368_10743# IL VSS sky130_fd_pr__nfet_01v8 ad=0p pd=0u as=0p ps=0u w=1e+07u l=150000u
X174 VSS a_11368_10743# IL VSS sky130_fd_pr__nfet_01v8 ad=0p pd=0u as=0p ps=0u w=1e+07u l=150000u
X175 a_73428_9048# a_74946_12706# VSS VSS sky130_fd_pr__nfet_01v8 ad=1.218e+11p pd=1.42e+06u as=0p ps=0u w=420000u l=150000u
X176 VDD IBIAS1 a_16088_14920# VDD sky130_fd_pr__pfet_01v8 ad=0p pd=0u as=0p ps=0u w=800000u l=900000u
X177 VDD a_7566_10753# IL VDD sky130_fd_pr__pfet_01v8 ad=0p pd=0u as=0p ps=0u w=1.5e+07u l=150000u
X178 IL a_7566_10753# VDD VDD sky130_fd_pr__pfet_01v8 ad=0p pd=0u as=0p ps=0u w=1.5e+07u l=150000u
X179 OUT a_83789_34601# a_83837_34689# VSS sky130_fd_pr__nfet_01v8 ad=3.59e+12p pd=2.918e+07u as=3.3e+12p ps=2.66e+07u w=1e+06u l=150000u
X180 a_71564_31840# a_67320_25401# a_71574_30207# VDD sky130_fd_pr__pfet_01v8 ad=6.96e+11p pd=7.12e+06u as=1.392e+12p ps=1.424e+07u w=600000u l=150000u
X181 a_73536_25404# a_73488_25316# VSS VSS sky130_fd_pr__nfet_01v8 ad=0p pd=0u as=0p ps=0u w=420000u l=150000u
X182 a_83135_18476# a_83073_22144# VSS VSS sky130_fd_pr__nfet_01v8 ad=1.16e+12p pd=8.58e+06u as=0p ps=0u w=4e+06u l=150000u
X183 IBIAS1 IBIAS1 VDD VDD sky130_fd_pr__pfet_01v8 ad=2.32e+12p pd=1.658e+07u as=0p ps=0u w=8e+06u l=900000u
X184 a_72318_12027# a_71488_11498# VDD VDD sky130_fd_pr__pfet_01v8 ad=3.48e+11p pd=3.56e+06u as=0p ps=0u w=600000u l=150000u
X185 a_72334_14651# a_71504_15572# VSS VSS sky130_fd_pr__nfet_01v8 ad=1.218e+11p pd=1.42e+06u as=0p ps=0u w=420000u l=150000u
X186 VDD a_7566_10753# IL VDD sky130_fd_pr__pfet_01v8 ad=0p pd=0u as=0p ps=0u w=1.5e+07u l=150000u
X187 IL a_7566_10753# VDD VDD sky130_fd_pr__pfet_01v8 ad=0p pd=0u as=0p ps=0u w=1.5e+07u l=150000u
X188 VSS a_11368_10743# IL VSS sky130_fd_pr__nfet_01v8 ad=0p pd=0u as=0p ps=0u w=1e+07u l=150000u
X189 VDD a_57378_34684# a_57314_35412# VDD sky130_fd_pr__pfet_01v8 ad=0p pd=0u as=2.9e+11p ps=2.58e+06u w=1e+06u l=500000u
X190 a_11368_10743# a_11080_22588# VSS VSS sky130_fd_pr__nfet_01v8 ad=0p pd=0u as=0p ps=0u w=4e+06u l=150000u
X191 VSS a_11368_10743# IL VSS sky130_fd_pr__nfet_01v8 ad=0p pd=0u as=0p ps=0u w=1e+07u l=150000u
X192 IL a_7566_10753# VDD VDD sky130_fd_pr__pfet_01v8 ad=0p pd=0u as=0p ps=0u w=1.5e+07u l=150000u
X193 a_7566_10753# a_7278_22598# VSS VSS sky130_fd_pr__nfet_01v8 ad=1.16e+13p pd=8.58e+07u as=0p ps=0u w=4e+06u l=150000u
X194 IL a_7566_10753# VDD VDD sky130_fd_pr__pfet_01v8 ad=0p pd=0u as=0p ps=0u w=1.5e+07u l=150000u
X195 IL a_7566_10753# VDD VDD sky130_fd_pr__pfet_01v8 ad=0p pd=0u as=0p ps=0u w=1.5e+07u l=150000u
X196 IL a_11368_10743# VSS VSS sky130_fd_pr__nfet_01v8 ad=0p pd=0u as=0p ps=0u w=1e+07u l=150000u
X197 a_74146_14447# a_73316_13918# VSS VSS sky130_fd_pr__nfet_01v8 ad=1.218e+11p pd=1.42e+06u as=0p ps=0u w=420000u l=150000u
X198 VDD a_67909_9036# a_67300_9036# VDD sky130_fd_pr__pfet_01v8 ad=0p pd=0u as=3.48e+11p ps=2.98e+06u w=1.2e+06u l=150000u
X199 VDD a_7566_10753# IL VDD sky130_fd_pr__pfet_01v8 ad=0p pd=0u as=0p ps=0u w=1.5e+07u l=150000u
X200 VDD a_7566_10753# IL VDD sky130_fd_pr__pfet_01v8 ad=0p pd=0u as=0p ps=0u w=1.5e+07u l=150000u
X201 a_17191_18793# IBIAS1 VDD VDD sky130_fd_pr__pfet_01v8 ad=2.32e+12p pd=1.658e+07u as=0p ps=0u w=8e+06u l=900000u
X202 VSS a_11368_10743# IL VSS sky130_fd_pr__nfet_01v8 ad=0p pd=0u as=0p ps=0u w=1e+07u l=150000u
X203 a_74946_12706# a_74142_12323# a_74956_13235# VDD sky130_fd_pr__pfet_01v8 ad=6.96e+11p pd=7.12e+06u as=1.392e+12p ps=1.424e+07u w=600000u l=150000u
X204 VDD a_7566_10753# IL VDD sky130_fd_pr__pfet_01v8 ad=0p pd=0u as=0p ps=0u w=1.5e+07u l=150000u
X205 VDD a_7566_10753# IL VDD sky130_fd_pr__pfet_01v8 ad=0p pd=0u as=0p ps=0u w=1.5e+07u l=150000u
X206 a_56948_28970# a_59304_32292# VSS VSS sky130_fd_pr__nfet_01v8 ad=2.9e+11p pd=2.58e+06u as=0p ps=0u w=1e+06u l=1e+06u
X207 IL a_11368_10743# VSS VSS sky130_fd_pr__nfet_01v8 ad=0p pd=0u as=0p ps=0u w=1e+07u l=150000u
X208 VSS a_11368_10743# IL VSS sky130_fd_pr__nfet_01v8 ad=0p pd=0u as=0p ps=0u w=1e+07u l=150000u
X209 IL a_7566_10753# VDD VDD sky130_fd_pr__pfet_01v8 ad=0p pd=0u as=0p ps=0u w=1.5e+07u l=150000u
X210 a_73546_25933# a_57410_29069# VDD VDD sky130_fd_pr__pfet_01v8 ad=1.392e+12p pd=1.424e+07u as=0p ps=0u w=600000u l=150000u
X211 a_71554_25459# a_69328_28068# VDD VDD sky130_fd_pr__pfet_01v8 ad=1.392e+12p pd=1.424e+07u as=0p ps=0u w=600000u l=150000u
X212 VDD a_87067_18652# a_83789_34601# VDD sky130_fd_pr__pfet_01v8 ad=0p pd=0u as=3.48e+13p ps=2.458e+08u w=1.2e+07u l=150000u
X213 IL a_7566_10753# VDD VDD sky130_fd_pr__pfet_01v8 ad=0p pd=0u as=0p ps=0u w=1.5e+07u l=150000u
X214 a_70521_11798# a_69961_10368# VDD VDD sky130_fd_pr__pfet_01v8 ad=3.48e+11p pd=2.98e+06u as=0p ps=0u w=1.2e+06u l=150000u
X215 VDD a_7278_22598# a_7566_10753# VDD sky130_fd_pr__pfet_01v8 ad=0p pd=0u as=0p ps=0u w=1.2e+07u l=150000u
X216 IL a_11368_10743# VSS VSS sky130_fd_pr__nfet_01v8 ad=0p pd=0u as=0p ps=0u w=1e+07u l=150000u
X217 a_16885_14913# a_18127_16042# a_18069_15548# VDD sky130_fd_pr__pfet_01v8 ad=0p pd=0u as=0p ps=0u w=800000u l=900000u
X218 VSS a_69328_28068# a_71544_27092# VSS sky130_fd_pr__nfet_01v8 ad=0p pd=0u as=2.436e+11p ps=2.84e+06u w=420000u l=150000u
X219 VSS a_83113_22047# a_83073_22144# VSS sky130_fd_pr__nfet_01v8 ad=0p pd=0u as=1.218e+11p ps=1.42e+06u w=420000u l=150000u
X220 IL a_11368_10743# VSS VSS sky130_fd_pr__nfet_01v8 ad=0p pd=0u as=0p ps=0u w=1e+07u l=150000u
X221 a_83789_34601# a_87067_18652# VSS VSS sky130_fd_pr__nfet_01v8 ad=1.16e+13p pd=8.58e+07u as=0p ps=0u w=4e+06u l=150000u
X222 IL a_7566_10753# VDD VDD sky130_fd_pr__pfet_01v8 ad=0p pd=0u as=0p ps=0u w=1.5e+07u l=150000u
X223 VDD a_67320_25401# a_69931_25266# VDD sky130_fd_pr__pfet_01v8 ad=0p pd=0u as=3.48e+11p ps=2.98e+06u w=1.2e+06u l=150000u
X224 VSS a_67969_25304# a_67360_25304# VSS sky130_fd_pr__nfet_01v8 ad=0p pd=0u as=1.218e+11p ps=1.42e+06u w=420000u l=150000u
X225 VDD IBIAS1 a_16885_14913# VDD sky130_fd_pr__pfet_01v8 ad=0p pd=0u as=0p ps=0u w=800000u l=900000u
X226 IL a_11368_10743# VSS VSS sky130_fd_pr__nfet_01v8 ad=0p pd=0u as=0p ps=0u w=1e+07u l=150000u
X227 a_58288_33530# VL IBIAS4 VSS sky130_fd_pr__nfet_01v8 ad=1.45e+12p pd=1.058e+07u as=0p ps=0u w=5e+06u l=1e+06u
X228 IL a_11368_10743# VSS VSS sky130_fd_pr__nfet_01v8 ad=0p pd=0u as=0p ps=0u w=1e+07u l=150000u
X229 a_74946_12706# a_74142_12323# a_74956_13235# VDD sky130_fd_pr__pfet_01v8 ad=0p pd=0u as=0p ps=0u w=600000u l=150000u
X230 a_71504_15572# a_67260_9133# a_71514_13939# VDD sky130_fd_pr__pfet_01v8 ad=6.96e+11p pd=7.12e+06u as=1.392e+12p ps=1.424e+07u w=600000u l=150000u
X231 VDD a_7566_10753# IL VDD sky130_fd_pr__pfet_01v8 ad=0p pd=0u as=0p ps=0u w=1.5e+07u l=150000u
X232 a_19597_14974# a_18069_15548# VSS VSS sky130_fd_pr__nfet_01v8 ad=1.392e+12p pd=1.308e+07u as=0p ps=0u w=800000u l=900000u
D1 VSS a_6572_28385# sky130_fd_pr__diode_pw2nd_05v5 pj=1.8e+06u area=2.025e+11p
X233 a_57320_36214# a_58342_34568# VDD VDD sky130_fd_pr__pfet_01v8 ad=2.9e+11p pd=2.58e+06u as=0p ps=0u w=1e+06u l=500000u
X234 VDD a_7566_10753# IL VDD sky130_fd_pr__pfet_01v8 ad=0p pd=0u as=0p ps=0u w=1.5e+07u l=150000u
X235 a_71548_27766# a_70581_28066# VSS VSS sky130_fd_pr__nfet_01v8 ad=0p pd=0u as=0p ps=0u w=420000u l=150000u
X236 VDD a_87067_18652# a_83789_34601# VDD sky130_fd_pr__pfet_01v8 ad=0p pd=0u as=0p ps=0u w=1.2e+07u l=150000u
X237 a_10334_5311# a_7812_5796# a_9914_5311# VDD sky130_fd_pr__pfet_01v8 ad=1.247e+11p pd=1.44e+06u as=2.494e+11p ps=2.88e+06u w=430000u l=150000u
X238 IL a_7566_10753# VDD VDD sky130_fd_pr__pfet_01v8 ad=0p pd=0u as=0p ps=0u w=1.5e+07u l=150000u
X239 IL a_7566_10753# VDD VDD sky130_fd_pr__pfet_01v8 ad=0p pd=0u as=0p ps=0u w=1.5e+07u l=150000u
X240 a_11978_8289# a_10728_7770# a_11558_8289# VDD sky130_fd_pr__pfet_01v8 ad=2.494e+11p pd=2.88e+06u as=2.494e+11p ps=2.88e+06u w=430000u l=150000u
X241 VDD a_7566_10753# IL VDD sky130_fd_pr__pfet_01v8 ad=0p pd=0u as=0p ps=0u w=1.5e+07u l=150000u
X242 VDD a_7566_10753# IL VDD sky130_fd_pr__pfet_01v8 ad=0p pd=0u as=0p ps=0u w=1.5e+07u l=150000u
X243 a_11368_10743# a_11080_22588# VSS VSS sky130_fd_pr__nfet_01v8 ad=0p pd=0u as=0p ps=0u w=4e+06u l=150000u
X244 OUT a_83789_34601# a_83837_34689# VSS sky130_fd_pr__nfet_01v8 ad=0p pd=0u as=0p ps=0u w=1e+06u l=150000u
X245 a_17203_21541# a_17191_18793# a_17191_18793# VSS sky130_fd_pr__nfet_01v8 ad=3.48e+12p pd=2.748e+07u as=1.392e+12p ps=1.308e+07u w=800000u l=900000u
X246 IL a_7566_10753# VDD VDD sky130_fd_pr__pfet_01v8 ad=0p pd=0u as=0p ps=0u w=1.5e+07u l=150000u
X247 a_68613_25302# a_68059_26674# VSS VSS sky130_fd_pr__nfet_01v8 ad=1.218e+11p pd=1.42e+06u as=0p ps=0u w=420000u l=150000u
X248 a_74946_12706# a_74142_12323# VSS VSS sky130_fd_pr__nfet_01v8 ad=2.436e+11p pd=2.84e+06u as=0p ps=0u w=420000u l=150000u
X249 a_15089_10332# a_18127_16042# a_16088_14920# VDD sky130_fd_pr__pfet_01v8 ad=0p pd=0u as=0p ps=0u w=800000u l=900000u
X250 VDD a_58288_33530# a_57324_33514# VDD sky130_fd_pr__pfet_01v8 ad=0p pd=0u as=8.7e+11p ps=7.16e+06u w=1.5e+06u l=500000u
X251 a_7566_10753# a_7278_22598# VSS VSS sky130_fd_pr__nfet_01v8 ad=0p pd=0u as=0p ps=0u w=4e+06u l=150000u
X252 VSS a_72318_12027# a_73312_13244# VSS sky130_fd_pr__nfet_01v8 ad=0p pd=0u as=2.436e+11p ps=2.84e+06u w=420000u l=150000u
X253 VDD a_7566_10753# IL VDD sky130_fd_pr__pfet_01v8 ad=0p pd=0u as=0p ps=0u w=1.5e+07u l=150000u
X254 IL a_11368_10743# VSS VSS sky130_fd_pr__nfet_01v8 ad=0p pd=0u as=0p ps=0u w=1e+07u l=150000u
X255 VDD a_7566_10753# IL VDD sky130_fd_pr__pfet_01v8 ad=0p pd=0u as=0p ps=0u w=1.5e+07u l=150000u
X256 a_71488_11498# a_70521_11798# a_71498_12027# VDD sky130_fd_pr__pfet_01v8 ad=0p pd=0u as=0p ps=0u w=600000u l=150000u
X257 a_74366_25933# a_73536_25404# VDD VDD sky130_fd_pr__pfet_01v8 ad=3.48e+11p pd=3.56e+06u as=0p ps=0u w=600000u l=150000u
X258 VDD IBIAS1 a_16885_14913# VDD sky130_fd_pr__pfet_01v8 ad=0p pd=0u as=0p ps=0u w=800000u l=900000u
X259 VSS a_67300_9036# a_67260_9133# VSS sky130_fd_pr__nfet_01v8 ad=0p pd=0u as=1.218e+11p ps=1.42e+06u w=420000u l=150000u
X260 IL a_7566_10753# VDD VDD sky130_fd_pr__pfet_01v8 ad=0p pd=0u as=0p ps=0u w=1.5e+07u l=150000u